data_crystal

_cell_length_a    13.67500
_cell_length_b    13.67500
_cell_length_c    14.76700
_cell_angle_alpha 90.00000
_cell_angle_beta  90.00000
_cell_angle_gamma 120.00000

_symmetry_space_group_name_Hall 'P 1'
_symmetry_space_group_name_H-M  'P 1'

loop_
_symmetry_equiv_pos_as_xyz
 'x,y,z'

loop_
_atom_site_label
_atom_site_type_symbol
_atom_site_fract_x
_atom_site_fract_y
_atom_site_fract_z
Si         Si      0.00030   0.22670   0.89490
Si         Si      0.33363   0.89337   0.56157
Si         Si      0.66697   0.56003   0.22823
Si         Si      0.22640   0.99970   0.89490
Si         Si      0.55973   0.66637   0.56157
Si         Si      0.89307   0.33303   0.22823
Si         Si      0.77330   0.77360   0.89490
Si         Si      0.10663   0.44027   0.56157
Al         Al      0.43997   0.10693   0.22823
Si         Si      0.22640   0.22670   0.89490
Al         Al      0.55466   0.89894   0.56502
Si         Si      0.89307   0.56003   0.22823
Si         Si      0.77330   0.99970   0.89490
Si         Si      0.10663   0.66637   0.56157
Si         Si      0.43997   0.33303   0.22823
Al         Al      0.00030   0.77360   0.89490
Si         Si      0.33363   0.44027   0.56157
Si         Si      0.66697   0.10693   0.22823
Si         Si      0.99970   0.77330   0.10510
Si         Si      0.33303   0.43997   0.77177
Si         Si      0.66637   0.10663   0.43843
Si         Si      0.77360   0.00030   0.10510
Si         Si      0.10693   0.66697   0.77177
Al         Al      0.43230   0.33331   0.42621
Si         Si      0.22670   0.22640   0.10510
Si         Si      0.56003   0.89307   0.77177
Si         Si      0.89337   0.55973   0.43843
Si         Si      0.77360   0.77330   0.10510
Al         Al      0.10693   0.43997   0.77177
Si         Si      0.44027   0.10663   0.43843
Si         Si      0.22670   0.00030   0.10510
Si         Si      0.56003   0.66697   0.77177
Si         Si      0.89337   0.33363   0.43843
Si         Si      0.99970   0.22640   0.10510
Si         Si      0.33303   0.89307   0.77177
Si         Si      0.66637   0.55973   0.43843
O          O       0.09800   0.19600   0.87730
O          O       0.43133   0.86267   0.54397
O          O       0.76467   0.52933   0.21063
O          O       0.09800   0.90200   0.87730
O          O       0.43133   0.56867   0.54397
O          O       0.76467   0.23533   0.21063
O          O       0.80400   0.90200   0.87730
O          O       0.13733   0.56867   0.54397
O          O       0.47067   0.23533   0.21063
O          O       0.90200   0.80400   0.12270
O          O       0.23376   0.47095   0.78747
O          O       0.56867   0.13733   0.45603
O          O       0.90200   0.09800   0.12270
O          O       0.23533   0.76467   0.78937
O          O       0.56867   0.43133   0.45603
O          O       0.19600   0.09800   0.12270
O          O       0.52933   0.76467   0.78937
O          O       0.86267   0.43133   0.45603
O          O       0.02330   0.33340   0.83330
O          O       0.35663   0.00007   0.49997
O          O       0.68997   0.66673   0.16663
O          O       0.31010   0.97670   0.83330
O          O       0.64343   0.64337   0.49997
O          O       0.97677   0.31003   0.16663
O          O       0.66660   0.68990   0.83330
O          O       0.99993   0.35657   0.49997
O          O       0.33327   0.02323   0.16663
O          O       0.31010   0.33340   0.83330
O          O       0.64343   0.00007   0.49997
O          O       0.97677   0.66673   0.16663
O          O       0.66660   0.97670   0.83330
O          O       0.99993   0.64337   0.49997
O          O       0.33327   0.31003   0.16663
O          O       0.02330   0.68990   0.83330
O          O       0.35663   0.35657   0.49997
O          O       0.68997   0.02323   0.16663
O          O       0.87970   0.12020   0.86850
O          O       0.21303   0.78687   0.53517
O          O       0.54637   0.45353   0.20183
O          O       0.24050   0.12030   0.86850
O          O       0.57383   0.78697   0.53517
O          O       0.90717   0.45363   0.20183
O          O       0.87980   0.75950   0.86850
O          O       0.21313   0.42617   0.53517
O          O       0.54647   0.09283   0.20183
O          O       0.12030   0.87980   0.13150
O          O       0.45363   0.54647   0.79817
O          O       0.78697   0.21313   0.46483
O          O       0.75950   0.87970   0.13150
O          O       0.09283   0.54637   0.79817
O          O       0.42617   0.21303   0.46483
O          O       0.12020   0.24050   0.13150
O          O       0.45353   0.90717   0.79817
O          O       0.78687   0.57383   0.46483
O          O       0.00000   0.25770   0.00000
O          O       0.33333   0.92437   0.66667
O          O       0.66667   0.59103   0.33333
O          O       0.25770   0.00000   0.00000
O          O       0.59103   0.66667   0.66667
O          O       0.92437   0.33333   0.33333
O          O       0.74230   0.74230   0.00000
O          O       0.07563   0.40897   0.66667
O          O       0.40897   0.07563   0.33333
O          O       0.25770   0.25770   0.00000
O          O       0.59103   0.92437   0.66667
O          O       0.92437   0.59103   0.33333
O          O       0.74230   0.00000   0.00000
O          O       0.07563   0.66667   0.66667
O          O       0.40897   0.33333   0.33333
O          O       0.00000   0.74230   0.00000
O          O       0.33333   0.40897   0.66667
O          O       0.66667   0.07563   0.33333
Li         Li      0.46843   0.96558   0.64777
Li         Li      0.16346   0.83112   0.80564
Li         Li      0.38202   0.22402   0.31850
Li         Li      0.20626   0.37819   0.91398
Li         Li      0.51511   0.47615   0.55880
