data_crystal

_cell_length_a    25.09900
_cell_length_b    25.09900
_cell_length_c    25.09900
_cell_angle_alpha 90.00000
_cell_angle_beta  90.00000
_cell_angle_gamma 90.00000

_space_group_name_Hall 'P 1'
_space_group_name_H-M_alt 'P 1'

loop_
_symmetry_equiv_pos_as_xyz
 'x,y,z'

loop_
_atom_site_label
_atom_site_type_symbol
_atom_site_fract_x
_atom_site_fract_y
_atom_site_fract_z
Na         Na      0.20460   0.20460   0.04540
Na         Na      0.79540   0.79540   0.95460
Na         Na      0.79540   0.95460   0.79540
Na         Na      0.95460   0.79540   0.79540
Na         Na      0.95460   0.45460   0.45460
Na         Na      0.20460   0.70460   0.54540
Na         Na      0.20460   0.54540   0.70460
Na         Na      0.04540   0.70460   0.70460
Na         Na      0.95460   0.29540   0.29540
Na         Na      0.54540   0.04540   0.54540
Na         Na      0.45460   0.95460   0.45460
Na         Na      0.29540   0.79540   0.45460
Na         Na      0.54540   0.20460   0.70460
Na         Na      0.45460   0.79540   0.29540
Na         Na      0.45460   0.45460   0.95460
Na         Na      0.70460   0.70460   0.04540
Na         Na      0.29540   0.29540   0.95460
Na         Na      0.70460   0.54540   0.20460
Na         Na      0.29540   0.45460   0.79540
Na         Na      0.54540   0.70460   0.20460
Na         Na      0.02080   0.02080   0.22920
Na         Na      0.02080   0.22920   0.02080
Na         Na      0.97920   0.77080   0.97920
Na         Na      0.22920   0.02080   0.02080
Na         Na      0.77080   0.97920   0.97920
Na         Na      0.22920   0.72920   0.72920
Na         Na      0.02080   0.52080   0.72920
Na         Na      0.68943   0.93276   0.28691
Na         Na      0.09017   0.75868   0.33665
Na         Na      0.97920   0.27080   0.47920
Na         Na      0.23326   0.53586   0.52448
Na         Na      0.77080   0.47920   0.47920
Na         Na      0.72920   0.22920   0.72920
Na         Na      0.27080   0.77080   0.27080
Na         Na      0.52080   0.22920   0.52080
Na         Na      0.72920   0.02080   0.52080
Na         Na      0.72920   0.72920   0.22920
Na         Na      0.27080   0.27080   0.77080
Na         Na      0.52080   0.52080   0.22920
Na         Na      0.47920   0.27080   0.97920
Si         Si      0.94619   0.12565   0.03508
Si         Si      0.05381   0.87435   0.96492
Si         Si      0.30381   0.12435   0.03508
Si         Si      0.69619   0.87565   0.96492
Si         Si      0.30381   0.12565   0.21492
Si         Si      0.69619   0.87435   0.78508
Si         Si      0.94619   0.12435   0.21492
Si         Si      0.05381   0.87565   0.78508
Si         Si      0.03508   0.94619   0.12565
Si         Si      0.96492   0.05381   0.87435
Si         Si      0.03508   0.30381   0.12435
Si         Si      0.96851   0.68866   0.87803
Si         Si      0.21492   0.30381   0.12565
Si         Si      0.78508   0.69619   0.87435
Si         Si      0.21492   0.94619   0.12435
Si         Si      0.78508   0.05381   0.87565
Si         Si      0.12565   0.03508   0.94619
Si         Si      0.87435   0.96492   0.05381
Si         Si      0.12435   0.03508   0.30381
Si         Si      0.87565   0.96492   0.69619
Si         Si      0.12565   0.21492   0.30381
Si         Si      0.87435   0.78508   0.69619
Si         Si      0.12435   0.21492   0.94619
Si         Si      0.87565   0.78508   0.05381
Si         Si      0.94619   0.62565   0.53508
Si         Si      0.05381   0.37435   0.46492
Si         Si      0.30381   0.62435   0.53508
Si         Si      0.69619   0.37565   0.46492
Si         Si      0.30381   0.62565   0.71492
Si         Si      0.69619   0.37435   0.28508
Si         Si      0.94619   0.62435   0.71492
Si         Si      0.05381   0.37565   0.28508
Si         Si      0.03508   0.44619   0.62565
Si         Si      0.96492   0.55381   0.37435
Si         Si      0.03508   0.80381   0.62435
Si         Si      0.96492   0.19619   0.37565
Si         Si      0.21492   0.80381   0.62565
Si         Si      0.78508   0.19619   0.37435
Si         Si      0.21492   0.44619   0.62435
Si         Si      0.78508   0.55381   0.37565
Si         Si      0.12565   0.53508   0.44619
Si         Si      0.87435   0.46492   0.55381
Si         Si      0.12435   0.53508   0.80381
Si         Si      0.87565   0.46492   0.19619
Si         Si      0.12565   0.71492   0.80381
Si         Si      0.87435   0.28508   0.19619
Si         Si      0.12435   0.71492   0.44619
Si         Si      0.87565   0.28508   0.55381
Si         Si      0.44619   0.12565   0.53508
Si         Si      0.55381   0.87435   0.46492
Si         Si      0.80381   0.12435   0.53508
Si         Si      0.19619   0.87565   0.46492
Si         Si      0.80381   0.12565   0.71492
Si         Si      0.19619   0.87435   0.28508
Si         Si      0.44619   0.12435   0.71492
Si         Si      0.55381   0.87565   0.28508
Si         Si      0.53508   0.94619   0.62565
Si         Si      0.46492   0.05381   0.37435
Si         Si      0.53508   0.30381   0.62435
Si         Si      0.46492   0.69619   0.37565
Si         Si      0.71492   0.30381   0.62565
Si         Si      0.28508   0.69619   0.37435
Si         Si      0.71492   0.94619   0.62435
Si         Si      0.28508   0.05381   0.37565
Si         Si      0.62565   0.03508   0.44619
Si         Si      0.37435   0.96492   0.55381
Si         Si      0.62435   0.03508   0.80381
Si         Si      0.37565   0.96492   0.19619
Si         Si      0.62565   0.21492   0.80381
Si         Si      0.37435   0.78508   0.19619
Si         Si      0.62435   0.21492   0.44619
Si         Si      0.37565   0.78508   0.55381
Si         Si      0.44619   0.62565   0.03508
Si         Si      0.55381   0.37435   0.96492
Si         Si      0.80381   0.62435   0.03508
Si         Si      0.19619   0.37565   0.96492
Si         Si      0.80381   0.62565   0.21492
Si         Si      0.19619   0.37435   0.78508
Si         Si      0.44619   0.62435   0.21492
Si         Si      0.55381   0.37565   0.78508
Si         Si      0.53508   0.44619   0.12565
Si         Si      0.47598   0.53543   0.86853
Si         Si      0.53508   0.80381   0.12435
Si         Si      0.46492   0.19619   0.87565
Si         Si      0.71492   0.80381   0.12565
Si         Si      0.28508   0.19619   0.87435
Si         Si      0.71492   0.44619   0.12435
Si         Si      0.28508   0.55381   0.87565
Si         Si      0.62565   0.53508   0.94619
Si         Si      0.37879   0.47291   0.05667
Si         Si      0.62435   0.53508   0.30381
Si         Si      0.37565   0.46492   0.69619
Si         Si      0.62565   0.71492   0.30381
Si         Si      0.37435   0.28508   0.69619
Si         Si      0.62435   0.71492   0.94619
Si         Si      0.37565   0.28508   0.05381
Si         Si      0.94476   0.03639   0.12418
Si         Si      0.05524   0.96361   0.87582
Al         Al      0.30524   0.21361   0.12418
Al         Al      0.69476   0.78639   0.87582
Si         Si      0.30524   0.03639   0.12582
Al         Al      0.69476   0.96361   0.87418
Al         Al      0.94476   0.21361   0.12582
Al         Al      0.05524   0.78639   0.87418
Si         Si      0.12418   0.94476   0.03639
Al         Al      0.87582   0.05524   0.96361
Al         Al      0.12180   0.30219   0.21873
Si         Si      0.87582   0.69476   0.78639
Al         Al      0.12582   0.30524   0.03639
Al         Al      0.87418   0.69476   0.96361
Al         Al      0.12582   0.94476   0.21361
Al         Al      0.87418   0.05524   0.78639
Al         Al      0.03639   0.12418   0.94476
Si         Si      0.96361   0.87582   0.05524
Al         Al      0.21361   0.12418   0.30524
Al         Al      0.78639   0.87582   0.69476
Si         Si      0.03639   0.12582   0.30524
Al         Al      0.96361   0.87418   0.69476
Si         Si      0.21361   0.12582   0.94476
Si         Si      0.78639   0.87418   0.05524
Al         Al      0.94476   0.53639   0.62418
Si         Si      0.05524   0.46361   0.37582
Al         Al      0.30524   0.71361   0.62418
Al         Al      0.69476   0.28639   0.37582
Si         Si      0.30524   0.53639   0.62582
Si         Si      0.69476   0.46361   0.37418
Al         Al      0.94476   0.71361   0.62582
Al         Al      0.05524   0.28639   0.37418
Al         Al      0.12418   0.44476   0.53639
Al         Al      0.87582   0.55524   0.46361
Al         Al      0.12418   0.80524   0.71361
Al         Al      0.87582   0.19476   0.28639
Al         Al      0.12582   0.80524   0.53639
Si         Si      0.87418   0.19476   0.46361
Al         Al      0.12582   0.44476   0.71361
Si         Si      0.87418   0.55524   0.28639
Al         Al      0.03639   0.62418   0.44476
Al         Al      0.96361   0.37582   0.55524
Al         Al      0.21361   0.62418   0.80524
Al         Al      0.78639   0.37582   0.19476
Al         Al      0.03639   0.62582   0.80524
Al         Al      0.96361   0.37418   0.19476
Si         Si      0.21361   0.62582   0.44476
Si         Si      0.78639   0.37418   0.55524
Al         Al      0.44476   0.03639   0.62418
Al         Al      0.55524   0.96361   0.37582
Al         Al      0.80524   0.21361   0.62418
Si         Si      0.19476   0.78639   0.37582
Al         Al      0.80524   0.03639   0.62582
Al         Al      0.19476   0.96361   0.37418
Al         Al      0.44476   0.21361   0.62582
Al         Al      0.55524   0.78639   0.37418
Al         Al      0.62418   0.94476   0.53639
Si         Si      0.37582   0.05524   0.46361
Al         Al      0.62418   0.30524   0.71361
Al         Al      0.37582   0.69476   0.28639
Al         Al      0.62582   0.30524   0.53639
Al         Al      0.37418   0.69476   0.46361
Al         Al      0.62582   0.94476   0.71361
Al         Al      0.37418   0.05524   0.28639
Si         Si      0.53639   0.12418   0.44476
Al         Al      0.46361   0.87582   0.55524
Si         Si      0.71361   0.12418   0.80524
Al         Al      0.28639   0.87582   0.19476
Si         Si      0.53639   0.12582   0.80524
Al         Al      0.46361   0.87418   0.19476
Si         Si      0.71361   0.12582   0.44476
Si         Si      0.28639   0.87418   0.55524
Si         Si      0.44476   0.53639   0.12418
Al         Al      0.55524   0.46361   0.87582
Al         Al      0.80524   0.71361   0.12418
Al         Al      0.19476   0.28639   0.87582
Si         Si      0.80524   0.53639   0.12582
Si         Si      0.19476   0.46361   0.87418
Al         Al      0.44476   0.71361   0.12582
Al         Al      0.55524   0.28639   0.87418
Al         Al      0.62418   0.44476   0.03639
Si         Si      0.37582   0.55524   0.96361
Si         Si      0.62418   0.80524   0.21361
Al         Al      0.37582   0.19476   0.78639
Al         Al      0.62582   0.80524   0.03639
Al         Al      0.37418   0.19476   0.96361
Al         Al      0.62582   0.44476   0.21361
Si         Si      0.37418   0.55524   0.78639
Al         Al      0.53639   0.62418   0.94476
Al         Al      0.46361   0.37582   0.05524
Al         Al      0.71361   0.62418   0.30524
Si         Si      0.28639   0.37582   0.69476
Al         Al      0.53639   0.62582   0.30524
Al         Al      0.46361   0.37418   0.69476
Si         Si      0.71361   0.62582   0.94476
Si         Si      0.28639   0.37418   0.05524
O          O       0.89010   0.00030   0.10560
O          O       0.10990   0.99970   0.89440
O          O       0.35990   0.24970   0.10560
O          O       0.64010   0.75030   0.89440
O          O       0.35990   0.00030   0.14440
O          O       0.64010   0.99970   0.85560
O          O       0.89010   0.24970   0.14440
O          O       0.10990   0.75030   0.85560
O          O       0.10560   0.89010   0.00030
O          O       0.89440   0.10990   0.99970
O          O       0.10560   0.35990   0.24970
O          O       0.89440   0.64010   0.75030
O          O       0.14440   0.35990   0.00030
O          O       0.85560   0.64010   0.99970
O          O       0.14440   0.89010   0.24970
O          O       0.85560   0.10990   0.75030
O          O       0.00030   0.10560   0.89010
O          O       0.99970   0.89440   0.10990
O          O       0.24970   0.10560   0.35990
O          O       0.75030   0.89440   0.64010
O          O       0.00030   0.14440   0.35990
O          O       0.99970   0.85560   0.64010
O          O       0.24970   0.14440   0.89010
O          O       0.75030   0.85560   0.10990
O          O       0.89010   0.50030   0.60560
O          O       0.10990   0.49970   0.39440
O          O       0.35990   0.74970   0.60560
O          O       0.64010   0.25030   0.39440
O          O       0.35990   0.50030   0.64440
O          O       0.64010   0.49970   0.35560
O          O       0.89010   0.74970   0.64440
O          O       0.10990   0.25030   0.35560
O          O       0.10560   0.39010   0.50030
O          O       0.89440   0.60990   0.49970
O          O       0.10560   0.85990   0.74970
O          O       0.89440   0.14010   0.25030
O          O       0.14440   0.85990   0.50030
O          O       0.85560   0.14010   0.49970
O          O       0.14440   0.39010   0.74970
O          O       0.85560   0.60990   0.25030
O          O       0.00030   0.60560   0.39010
O          O       0.99970   0.39440   0.60990
O          O       0.24970   0.60560   0.85990
O          O       0.75030   0.39440   0.14010
O          O       0.00030   0.64440   0.85990
O          O       0.99970   0.35560   0.14010
O          O       0.24970   0.64440   0.39010
O          O       0.75030   0.35560   0.60990
O          O       0.39010   0.00030   0.60560
O          O       0.60990   0.99970   0.39440
O          O       0.85990   0.24970   0.60560
O          O       0.14010   0.75030   0.39440
O          O       0.85990   0.00030   0.64440
O          O       0.14010   0.99970   0.35560
O          O       0.39010   0.24970   0.64440
O          O       0.60990   0.75030   0.35560
O          O       0.60560   0.89010   0.50030
O          O       0.39440   0.10990   0.49970
O          O       0.60560   0.35990   0.74970
O          O       0.39440   0.64010   0.25030
O          O       0.64440   0.35990   0.50030
O          O       0.35560   0.64010   0.49970
O          O       0.64440   0.89010   0.74970
O          O       0.35560   0.10990   0.25030
O          O       0.50030   0.10560   0.39010
O          O       0.49970   0.89440   0.60990
O          O       0.74970   0.10560   0.85990
O          O       0.25030   0.89440   0.14010
O          O       0.50030   0.14440   0.85990
O          O       0.49970   0.85560   0.14010
O          O       0.74970   0.14440   0.39010
O          O       0.25030   0.85560   0.60990
O          O       0.39010   0.50030   0.10560
O          O       0.60990   0.49970   0.89440
O          O       0.85990   0.74970   0.10560
O          O       0.14010   0.25030   0.89440
O          O       0.85990   0.50030   0.14440
O          O       0.14010   0.49970   0.85560
O          O       0.39010   0.74970   0.14440
O          O       0.60990   0.25030   0.85560
O          O       0.60560   0.39010   0.00030
O          O       0.39440   0.60990   0.99970
O          O       0.60560   0.85990   0.24970
O          O       0.39440   0.14010   0.75030
O          O       0.64440   0.85990   0.00030
O          O       0.35560   0.14010   0.99970
O          O       0.64440   0.39010   0.24970
O          O       0.35560   0.60990   0.75030
O          O       0.50030   0.60560   0.89010
O          O       0.49970   0.39440   0.10990
O          O       0.74970   0.60560   0.35990
O          O       0.25030   0.39440   0.64010
O          O       0.50030   0.64440   0.35990
O          O       0.49970   0.35560   0.64010
O          O       0.74970   0.64440   0.89010
O          O       0.25030   0.35560   0.10990
O          O       0.99890   0.99720   0.14160
O          O       0.00110   0.00280   0.85840
O          O       0.25110   0.25280   0.14160
O          O       0.74890   0.74720   0.85840
O          O       0.25110   0.99720   0.10840
O          O       0.74890   0.00280   0.89160
O          O       0.99890   0.25280   0.10840
O          O       0.00110   0.74720   0.89160
O          O       0.14160   0.99890   0.99720
O          O       0.85840   0.00110   0.00280
O          O       0.14160   0.25110   0.25280
O          O       0.85840   0.74890   0.74720
O          O       0.10840   0.25110   0.99720
O          O       0.89160   0.74890   0.00280
O          O       0.10840   0.99890   0.25280
O          O       0.89160   0.00110   0.74720
O          O       0.99720   0.14160   0.99890
O          O       0.00280   0.85840   0.00110
O          O       0.25280   0.14160   0.25110
O          O       0.74720   0.85840   0.74890
O          O       0.99720   0.10840   0.25110
O          O       0.00280   0.89160   0.74890
O          O       0.25280   0.10840   0.99890
O          O       0.74720   0.89160   0.00110
O          O       0.99890   0.49720   0.64160
O          O       0.00110   0.50280   0.35840
O          O       0.25110   0.75280   0.64160
O          O       0.74890   0.24720   0.35840
O          O       0.25110   0.49720   0.60840
O          O       0.74890   0.50280   0.39160
O          O       0.99890   0.75280   0.60840
O          O       0.00110   0.24720   0.39160
O          O       0.14160   0.49890   0.49720
O          O       0.85840   0.50110   0.50280
O          O       0.14160   0.75110   0.75280
O          O       0.85840   0.24890   0.24720
O          O       0.10840   0.75110   0.49720
O          O       0.89160   0.24890   0.50280
O          O       0.10840   0.49890   0.75280
O          O       0.89160   0.50110   0.24720
O          O       0.99720   0.64160   0.49890
O          O       0.00280   0.35840   0.50110
O          O       0.25280   0.64160   0.75110
O          O       0.74720   0.35840   0.24890
O          O       0.99720   0.60840   0.75110
O          O       0.00280   0.39160   0.24890
O          O       0.25280   0.60840   0.49890
O          O       0.74720   0.39160   0.50110
O          O       0.49890   0.99720   0.64160
O          O       0.50110   0.00280   0.35840
O          O       0.75110   0.25280   0.64160
O          O       0.24890   0.74720   0.35840
O          O       0.75110   0.99720   0.60840
O          O       0.24890   0.00280   0.39160
O          O       0.49890   0.25280   0.60840
O          O       0.50110   0.74720   0.39160
O          O       0.64160   0.99890   0.49720
O          O       0.35840   0.00110   0.50280
O          O       0.64160   0.25110   0.75280
O          O       0.35840   0.74890   0.24720
O          O       0.60840   0.25110   0.49720
O          O       0.39160   0.74890   0.50280
O          O       0.60840   0.99890   0.75280
O          O       0.39160   0.00110   0.24720
O          O       0.49720   0.14160   0.49890
O          O       0.50280   0.85840   0.50110
O          O       0.75280   0.14160   0.75110
O          O       0.24720   0.85840   0.24890
O          O       0.49720   0.10840   0.75110
O          O       0.50280   0.89160   0.24890
O          O       0.75280   0.10840   0.49890
O          O       0.24720   0.89160   0.50110
O          O       0.49890   0.49720   0.14160
O          O       0.50110   0.50280   0.85840
O          O       0.75110   0.75280   0.14160
O          O       0.24890   0.24720   0.85840
O          O       0.75110   0.49720   0.10840
O          O       0.24890   0.50280   0.89160
O          O       0.49890   0.75280   0.10840
O          O       0.50110   0.24720   0.89160
O          O       0.64160   0.49890   0.99720
O          O       0.35840   0.50110   0.00280
O          O       0.64160   0.75110   0.25280
O          O       0.35840   0.24890   0.74720
O          O       0.60840   0.75110   0.99720
O          O       0.39160   0.24890   0.00280
O          O       0.60840   0.49890   0.25280
O          O       0.39160   0.50110   0.74720
O          O       0.49720   0.64160   0.99890
O          O       0.50280   0.35840   0.00110
O          O       0.75280   0.64160   0.25110
O          O       0.24720   0.35840   0.74890
O          O       0.49720   0.60840   0.25110
O          O       0.50280   0.39160   0.74890
O          O       0.75280   0.60840   0.99890
O          O       0.24720   0.39160   0.00110
O          O       0.96540   0.07580   0.07110
O          O       0.03460   0.92420   0.92890
O          O       0.28460   0.17420   0.07110
O          O       0.71540   0.82580   0.92890
O          O       0.28460   0.07580   0.17890
O          O       0.71540   0.92420   0.82110
O          O       0.96540   0.17420   0.17890
O          O       0.03460   0.82580   0.82110
O          O       0.07110   0.96540   0.07580
O          O       0.92890   0.03460   0.92420
O          O       0.07110   0.28460   0.17420
O          O       0.92890   0.71540   0.82580
O          O       0.17890   0.28460   0.07580
O          O       0.82110   0.71540   0.92420
O          O       0.17890   0.96540   0.17420
O          O       0.82110   0.03460   0.82580
O          O       0.07580   0.07110   0.96540
O          O       0.92420   0.92890   0.03460
O          O       0.17420   0.07110   0.28460
O          O       0.82580   0.92890   0.71540
O          O       0.07580   0.17890   0.28460
O          O       0.92420   0.82110   0.71540
O          O       0.17420   0.17890   0.96540
O          O       0.82580   0.82110   0.03460
O          O       0.96540   0.57580   0.57110
O          O       0.03460   0.42420   0.42890
O          O       0.28460   0.67420   0.57110
O          O       0.71540   0.32580   0.42890
O          O       0.28460   0.57580   0.67890
O          O       0.71540   0.42420   0.32110
O          O       0.96540   0.67420   0.67890
O          O       0.03460   0.32580   0.32110
O          O       0.07110   0.46540   0.57580
O          O       0.92890   0.53460   0.42420
O          O       0.07110   0.78460   0.67420
O          O       0.92890   0.21540   0.32580
O          O       0.17890   0.78460   0.57580
O          O       0.82110   0.21540   0.42420
O          O       0.17890   0.46540   0.67420
O          O       0.82110   0.53460   0.32580
O          O       0.07469   0.56696   0.46344
O          O       0.92420   0.42890   0.53460
O          O       0.17420   0.57110   0.78460
O          O       0.82580   0.42890   0.21540
O          O       0.07580   0.67890   0.78460
O          O       0.92420   0.32110   0.21540
O          O       0.17420   0.67890   0.46540
O          O       0.82580   0.32110   0.53460
O          O       0.46540   0.07580   0.57110
O          O       0.53460   0.92420   0.42890
O          O       0.78460   0.17420   0.57110
O          O       0.21540   0.82580   0.42890
O          O       0.78460   0.07580   0.67890
O          O       0.21540   0.92420   0.32110
O          O       0.46540   0.17420   0.67890
O          O       0.53460   0.82580   0.32110
O          O       0.57110   0.96540   0.57580
O          O       0.42890   0.03460   0.42420
O          O       0.57110   0.28460   0.67420
O          O       0.42890   0.71540   0.32580
O          O       0.67890   0.28460   0.57580
O          O       0.32110   0.71540   0.42420
O          O       0.67890   0.96540   0.67420
O          O       0.32110   0.03460   0.32580
O          O       0.57580   0.07110   0.46540
O          O       0.42420   0.92890   0.53460
O          O       0.67420   0.07110   0.78460
O          O       0.32580   0.92890   0.21540
O          O       0.57580   0.17890   0.78460
O          O       0.42420   0.82110   0.21540
O          O       0.67420   0.17890   0.46540
O          O       0.32580   0.82110   0.53460
O          O       0.46540   0.57580   0.07110
O          O       0.53460   0.42420   0.92890
O          O       0.78460   0.67420   0.07110
O          O       0.21540   0.32580   0.92890
O          O       0.78460   0.57580   0.17890
O          O       0.21540   0.42420   0.82110
O          O       0.46540   0.67420   0.17890
O          O       0.53460   0.32580   0.82110
O          O       0.57110   0.46540   0.07580
O          O       0.42890   0.53460   0.92420
O          O       0.57110   0.78460   0.17420
O          O       0.42890   0.21540   0.82580
O          O       0.67890   0.78460   0.07580
O          O       0.32110   0.21540   0.92420
O          O       0.67890   0.46540   0.17420
O          O       0.32110   0.53460   0.82580
O          O       0.57580   0.57110   0.96540
O          O       0.42420   0.42890   0.03460
O          O       0.67420   0.57110   0.28460
O          O       0.32580   0.42890   0.71540
O          O       0.57580   0.67890   0.28460
O          O       0.42420   0.32110   0.71540
O          O       0.67420   0.67890   0.96540
O          O       0.32580   0.32110   0.03460
O          O       0.93070   0.07260   0.18000
O          O       0.06930   0.92740   0.82000
O          O       0.31930   0.17740   0.18000
O          O       0.68070   0.82260   0.82000
O          O       0.31930   0.07260   0.07000
O          O       0.68070   0.92740   0.93000
O          O       0.93070   0.17740   0.07000
O          O       0.06930   0.82260   0.93000
O          O       0.18000   0.93070   0.07260
O          O       0.82000   0.06930   0.92740
O          O       0.18000   0.31930   0.17740
O          O       0.82000   0.68070   0.82260
O          O       0.07000   0.31930   0.07260
O          O       0.93000   0.68070   0.92740
O          O       0.07000   0.93070   0.17740
O          O       0.93000   0.06930   0.82260
O          O       0.07260   0.18000   0.93070
O          O       0.92740   0.82000   0.06930
O          O       0.17740   0.18000   0.31930
O          O       0.82260   0.82000   0.68070
O          O       0.07260   0.07000   0.31930
O          O       0.92740   0.93000   0.68070
O          O       0.17740   0.07000   0.93070
O          O       0.82260   0.93000   0.06930
O          O       0.93070   0.57260   0.68000
O          O       0.06930   0.42740   0.32000
O          O       0.31930   0.67740   0.68000
O          O       0.68070   0.32260   0.32000
O          O       0.31930   0.57260   0.57000
O          O       0.68070   0.42740   0.43000
O          O       0.93070   0.67740   0.57000
O          O       0.06930   0.32260   0.43000
O          O       0.18000   0.43070   0.57260
O          O       0.82000   0.56930   0.42740
O          O       0.18000   0.81930   0.67740
O          O       0.82000   0.18070   0.32260
O          O       0.07000   0.81930   0.57260
O          O       0.93000   0.18070   0.42740
O          O       0.07000   0.43070   0.67740
O          O       0.93000   0.56930   0.32260
O          O       0.07260   0.68000   0.43070
O          O       0.92740   0.32000   0.56930
O          O       0.17740   0.68000   0.81930
O          O       0.82260   0.32000   0.18070
O          O       0.07260   0.57000   0.81930
O          O       0.92740   0.43000   0.18070
O          O       0.17740   0.57000   0.43070
O          O       0.82260   0.43000   0.56930
O          O       0.43070   0.07260   0.68000
O          O       0.56930   0.92740   0.32000
O          O       0.81930   0.17740   0.68000
O          O       0.18070   0.82260   0.32000
O          O       0.81930   0.07260   0.57000
O          O       0.18070   0.92740   0.43000
O          O       0.43070   0.17740   0.57000
O          O       0.56930   0.82260   0.43000
O          O       0.68000   0.93070   0.57260
O          O       0.32000   0.06930   0.42740
O          O       0.68000   0.31930   0.67740
O          O       0.32000   0.68070   0.32260
O          O       0.57000   0.31930   0.57260
O          O       0.43000   0.68070   0.42740
O          O       0.57000   0.93070   0.67740
O          O       0.43000   0.06930   0.32260
O          O       0.57260   0.18000   0.43070
O          O       0.42740   0.82000   0.56930
O          O       0.67740   0.18000   0.81930
O          O       0.32260   0.82000   0.18070
O          O       0.57260   0.07000   0.81930
O          O       0.42740   0.93000   0.18070
O          O       0.67740   0.07000   0.43070
O          O       0.32260   0.93000   0.56930
O          O       0.43070   0.57260   0.18000
O          O       0.56930   0.42740   0.82000
O          O       0.81930   0.67740   0.18000
O          O       0.18070   0.32260   0.82000
O          O       0.81930   0.57260   0.07000
O          O       0.18070   0.42740   0.93000
O          O       0.43070   0.67740   0.07000
O          O       0.56930   0.32260   0.93000
O          O       0.68000   0.43070   0.07260
O          O       0.32000   0.56930   0.92740
O          O       0.68000   0.81930   0.17740
O          O       0.32000   0.18070   0.82260
O          O       0.57000   0.81930   0.07260
O          O       0.43000   0.18070   0.92740
O          O       0.57000   0.43070   0.17740
O          O       0.43000   0.56930   0.82260
O          O       0.57260   0.68000   0.93070
O          O       0.42740   0.32000   0.06930
O          O       0.67740   0.68000   0.31930
O          O       0.32260   0.32000   0.68070
O          O       0.57260   0.57000   0.31930
O          O       0.42740   0.43000   0.68070
O          O       0.67740   0.57000   0.93070
O          O       0.32260   0.43000   0.06930
Na         Na      0.68059   0.67833   0.79138
Na         Na      0.51672   0.57525   0.73962
Na         Na      0.62922   0.83306   0.62738
Na         Na      0.50216   0.47293   0.32517
Na         Na      0.16632   0.37325   0.37108
Na         Na      0.23156   0.40838   0.45887
Na         Na      0.31681   0.65044   0.08600
Na         Na      0.45682   0.15626   0.07892
Na         Na      0.66394   0.31636   0.12162
Na         Na      0.81442   0.16284   0.09953
Na         Na      0.66835   0.36837   0.86217
Na         Na      0.61838   0.14091   0.91913
Na         Na      0.81984   0.18909   0.90573
Na         Na      0.32650   0.68720   0.89924
Na         Na      0.26348   0.76130   0.82594
Na         Na      0.17095   0.86252   0.85756
Na         Na      0.41679   0.62289   0.63195
Na         Na      0.43235   0.54915   0.54742
Na         Na      0.57999   0.37958   0.38587
Na         Na      0.62409   0.41626   0.62543
Na         Na      0.20083   0.08575   0.47730
Na         Na      0.32245   0.14077   0.66701
Na         Na      0.05846   0.21904   0.81543
Na         Na      0.20460   0.04540   0.20460
