data_crystal

_cell_length_a    35.62200
_cell_length_b    35.62200
_cell_length_c    35.62200
_cell_angle_alpha 90.00000
_cell_angle_beta  90.00000
_cell_angle_gamma 90.00000

_space_group_name_Hall 'P 1'
_space_group_name_H-M_alt 'P 1'

loop_
_symmetry_equiv_pos_as_xyz
 'x,y,z'

loop_
_atom_site_label
_atom_site_type_symbol
_atom_site_fract_x
_atom_site_fract_y
_atom_site_fract_z
Si         Si      0.18620   0.12500   0.24770
Si         Si      0.18620   0.62500   0.74770
Si         Si      0.68620   0.62500   0.24770
Si         Si      0.68620   0.12500   0.74770
Si         Si      0.24770   0.18620   0.12500
Si         Si      0.24770   0.68620   0.62500
Si         Si      0.74770   0.68620   0.12500
Si         Si      0.74770   0.18620   0.62500
Si         Si      0.12500   0.24770   0.18620
Si         Si      0.12500   0.74770   0.68620
Si         Si      0.62500   0.74770   0.18620
Si         Si      0.62500   0.24770   0.68620
Si         Si      0.81380   0.37500   0.49770
Si         Si      0.81380   0.87500   0.99770
Si         Si      0.31380   0.87500   0.49770
Si         Si      0.31380   0.37500   0.99770
Si         Si      0.75230   0.43620   0.37500
Si         Si      0.75230   0.93620   0.87500
Si         Si      0.25230   0.93620   0.37500
Si         Si      0.25230   0.43620   0.87500
Si         Si      0.87500   0.49770   0.43620
Si         Si      0.87500   0.99770   0.93620
Si         Si      0.37500   0.99770   0.43620
Si         Si      0.37500   0.49770   0.93620
Si         Si      0.43620   0.87500   0.49770
Si         Si      0.43620   0.37500   0.99770
Si         Si      0.93620   0.37500   0.49770
Si         Si      0.93620   0.87500   0.99770
Si         Si      0.49770   0.81380   0.37500
Si         Si      0.49770   0.31380   0.87500
Si         Si      0.99770   0.31380   0.37500
Si         Si      0.99770   0.81380   0.87500
Si         Si      0.37500   0.75230   0.43620
Si         Si      0.37500   0.25230   0.93620
Si         Si      0.87500   0.25230   0.43620
Si         Si      0.87500   0.75230   0.93620
Si         Si      0.06380   0.62500   0.74770
Si         Si      0.06380   0.12500   0.24770
Si         Si      0.56380   0.12500   0.74770
Si         Si      0.56380   0.62500   0.24770
Si         Si      0.00230   0.56380   0.62500
Si         Si      0.00230   0.06380   0.12500
Si         Si      0.50230   0.06380   0.62500
Si         Si      0.50230   0.56380   0.12500
Si         Si      0.12500   0.50230   0.68620
Si         Si      0.12500   0.00230   0.18620
Si         Si      0.62500   0.00230   0.68620
Si         Si      0.62500   0.50230   0.18620
Si         Si      0.12500   0.18620   0.24770
Si         Si      0.12500   0.68620   0.74770
Si         Si      0.62500   0.68620   0.24770
Si         Si      0.62500   0.18620   0.74770
Si         Si      0.18620   0.24770   0.12500
Si         Si      0.18620   0.74770   0.62500
Si         Si      0.68620   0.74770   0.12500
Si         Si      0.68620   0.24770   0.62500
Si         Si      0.24770   0.12500   0.18620
Si         Si      0.24770   0.62500   0.68620
Si         Si      0.74770   0.62500   0.18620
Si         Si      0.74770   0.12500   0.68620
Si         Si      0.37500   0.81380   0.49770
Si         Si      0.37500   0.31380   0.99770
Si         Si      0.87500   0.31380   0.49770
Si         Si      0.87500   0.81380   0.99770
Si         Si      0.43620   0.75230   0.37500
Si         Si      0.43620   0.25230   0.87500
Si         Si      0.93620   0.25230   0.37500
Si         Si      0.93620   0.75230   0.87500
Si         Si      0.49770   0.87500   0.43620
Si         Si      0.49770   0.37500   0.93620
Si         Si      0.99770   0.37500   0.43620
Si         Si      0.99770   0.87500   0.93620
Si         Si      0.87500   0.43620   0.49770
Si         Si      0.87500   0.93620   0.99770
Si         Si      0.37500   0.93620   0.49770
Si         Si      0.37500   0.43620   0.99770
Si         Si      0.81380   0.49770   0.37500
Si         Si      0.81380   0.99770   0.87500
Si         Si      0.31380   0.99770   0.37500
Si         Si      0.31380   0.49770   0.87500
Si         Si      0.75230   0.37500   0.43620
Si         Si      0.75230   0.87500   0.93620
Si         Si      0.25230   0.87500   0.43620
Si         Si      0.25230   0.37500   0.93620
Si         Si      0.62500   0.06380   0.74770
Si         Si      0.62500   0.56380   0.24770
Si         Si      0.12500   0.56380   0.74770
Si         Si      0.12500   0.06380   0.24770
Si         Si      0.56380   0.00230   0.62500
Si         Si      0.56380   0.50230   0.12500
Si         Si      0.06380   0.50230   0.62500
Si         Si      0.06380   0.00230   0.12500
Si         Si      0.50230   0.12500   0.68620
Si         Si      0.50230   0.62500   0.18620
Si         Si      0.00230   0.62500   0.68620
Si         Si      0.00230   0.12500   0.18620
Si         Si      0.81380   0.87500   0.75230
Si         Si      0.81380   0.37500   0.25230
Si         Si      0.31380   0.37500   0.75230
Si         Si      0.31380   0.87500   0.25230
Si         Si      0.75230   0.81380   0.87500
Si         Si      0.75230   0.31380   0.37500
Si         Si      0.25230   0.31380   0.87500
Si         Si      0.25230   0.81380   0.37500
Si         Si      0.87500   0.75230   0.81380
Si         Si      0.87500   0.25230   0.31380
Si         Si      0.37500   0.25230   0.81380
Si         Si      0.37500   0.75230   0.31380
Si         Si      0.18620   0.62500   0.50230
Si         Si      0.18620   0.12500   0.00230
Si         Si      0.68620   0.12500   0.50230
Si         Si      0.68620   0.62500   0.00230
Si         Si      0.24770   0.56380   0.62500
Si         Si      0.24770   0.06380   0.12500
Si         Si      0.74770   0.06380   0.62500
Si         Si      0.74770   0.56380   0.12500
Si         Si      0.12500   0.50230   0.56380
Si         Si      0.12500   0.00230   0.06380
Si         Si      0.62500   0.00230   0.56380
Si         Si      0.62500   0.50230   0.06380
Si         Si      0.56380   0.12500   0.50230
Si         Si      0.56380   0.62500   0.00230
Si         Si      0.06380   0.62500   0.50230
Si         Si      0.06380   0.12500   0.00230
Si         Si      0.50230   0.18620   0.62500
Si         Si      0.50230   0.68620   0.12500
Si         Si      0.00230   0.68620   0.62500
Si         Si      0.00230   0.18620   0.12500
Si         Si      0.62500   0.24770   0.56380
Si         Si      0.62500   0.74770   0.06380
Si         Si      0.12500   0.74770   0.56380
Si         Si      0.12500   0.24770   0.06380
Si         Si      0.93620   0.37500   0.25230
Si         Si      0.93620   0.87500   0.75230
Si         Si      0.43620   0.87500   0.25230
Si         Si      0.43620   0.37500   0.75230
Si         Si      0.99770   0.43620   0.37500
Si         Si      0.99770   0.93620   0.87500
Si         Si      0.49770   0.93620   0.37500
Si         Si      0.49770   0.43620   0.87500
Si         Si      0.87500   0.49770   0.31380
Si         Si      0.87500   0.99770   0.81380
Si         Si      0.37500   0.99770   0.31380
Si         Si      0.37500   0.49770   0.81380
Si         Si      0.87500   0.81380   0.75230
Si         Si      0.87500   0.31380   0.25230
Si         Si      0.37500   0.31380   0.75230
Si         Si      0.37500   0.81380   0.25230
Si         Si      0.81380   0.75230   0.87500
Si         Si      0.81380   0.25230   0.37500
Si         Si      0.31380   0.25230   0.87500
Si         Si      0.31380   0.75230   0.37500
Si         Si      0.75230   0.87500   0.81380
Si         Si      0.75230   0.37500   0.31380
Si         Si      0.25230   0.37500   0.81380
Si         Si      0.25230   0.87500   0.31380
Si         Si      0.62500   0.18620   0.50230
Si         Si      0.62500   0.68620   0.00230
Si         Si      0.12500   0.68620   0.50230
Si         Si      0.12500   0.18620   0.00230
Si         Si      0.56380   0.24770   0.62500
Si         Si      0.56380   0.74770   0.12500
Si         Si      0.06380   0.74770   0.62500
Si         Si      0.06380   0.24770   0.12500
Si         Si      0.50230   0.12500   0.56380
Si         Si      0.50230   0.62500   0.06380
Si         Si      0.00230   0.62500   0.56380
Si         Si      0.00230   0.12500   0.06380
Si         Si      0.12500   0.56380   0.50230
Si         Si      0.12500   0.06380   0.00230
Si         Si      0.62500   0.06380   0.50230
Si         Si      0.62500   0.56380   0.00230
Si         Si      0.18620   0.50230   0.62500
Si         Si      0.18620   0.00230   0.12500
Si         Si      0.68620   0.00230   0.62500
Si         Si      0.68620   0.50230   0.12500
Si         Si      0.24770   0.62500   0.56380
Si         Si      0.24770   0.12500   0.06380
Si         Si      0.74770   0.12500   0.56380
Si         Si      0.74770   0.62500   0.06380
Si         Si      0.37500   0.93620   0.25230
Si         Si      0.37500   0.43620   0.75230
Si         Si      0.87500   0.43620   0.25230
Si         Si      0.87500   0.93620   0.75230
Si         Si      0.43620   0.99770   0.37500
Si         Si      0.43620   0.49770   0.87500
Si         Si      0.93620   0.49770   0.37500
Si         Si      0.93620   0.99770   0.87500
Si         Si      0.49770   0.87500   0.31380
Si         Si      0.49770   0.37500   0.81380
Si         Si      0.99770   0.37500   0.31380
Si         Si      0.99770   0.87500   0.81380
Si         Si      0.30950   0.12310   0.24710
Si         Si      0.30950   0.62310   0.74710
Si         Si      0.80950   0.62310   0.24710
Si         Si      0.80950   0.12310   0.74710
Si         Si      0.24710   0.30950   0.12310
Si         Si      0.24710   0.80950   0.62310
Si         Si      0.74710   0.80950   0.12310
Si         Si      0.74710   0.30950   0.62310
Si         Si      0.12310   0.24710   0.30950
Si         Si      0.12310   0.74710   0.80950
Si         Si      0.62310   0.74710   0.30950
Si         Si      0.62310   0.24710   0.80950
Si         Si      0.69050   0.37310   0.49710
Si         Si      0.69050   0.87310   0.99710
Si         Si      0.19050   0.87310   0.49710
Si         Si      0.19050   0.37310   0.99710
Si         Si      0.75290   0.55950   0.37310
Si         Si      0.75290   0.05950   0.87310
Si         Si      0.25290   0.05950   0.37310
Si         Si      0.25290   0.55950   0.87310
Si         Si      0.87690   0.49710   0.55950
Si         Si      0.87690   0.99710   0.05950
Si         Si      0.37690   0.99710   0.55950
Si         Si      0.37690   0.49710   0.05950
Si         Si      0.55950   0.87690   0.49710
Si         Si      0.55950   0.37690   0.99710
Si         Si      0.05950   0.37690   0.49710
Si         Si      0.05950   0.87690   0.99710
Si         Si      0.49710   0.69050   0.37310
Si         Si      0.49710   0.19050   0.87310
Si         Si      0.99710   0.19050   0.37310
Si         Si      0.99710   0.69050   0.87310
Si         Si      0.37310   0.75290   0.55950
Si         Si      0.37310   0.25290   0.05950
Si         Si      0.87310   0.25290   0.55950
Si         Si      0.87310   0.75290   0.05950
Si         Si      0.94050   0.62690   0.74710
Si         Si      0.94050   0.12690   0.24710
Si         Si      0.44050   0.12690   0.74710
Si         Si      0.44050   0.62690   0.24710
Si         Si      0.00290   0.44050   0.62310
Si         Si      0.00290   0.94050   0.12310
Si         Si      0.50290   0.94050   0.62310
Si         Si      0.50290   0.44050   0.12310
Si         Si      0.12690   0.50290   0.80950
Si         Si      0.12690   0.00290   0.30950
Si         Si      0.62690   0.00290   0.80950
Si         Si      0.62690   0.50290   0.30950
Si         Si      0.12310   0.30950   0.24710
Si         Si      0.12310   0.80950   0.74710
Si         Si      0.62310   0.80950   0.24710
Si         Si      0.62310   0.30950   0.74710
Si         Si      0.30950   0.24710   0.12310
Si         Si      0.30950   0.74710   0.62310
Si         Si      0.80950   0.74710   0.12310
Si         Si      0.80950   0.24710   0.62310
Si         Si      0.24710   0.12310   0.30950
Si         Si      0.24710   0.62310   0.80950
Si         Si      0.74710   0.62310   0.30950
Si         Si      0.74710   0.12310   0.80950
Si         Si      0.37310   0.69050   0.49710
Si         Si      0.37310   0.19050   0.99710
Si         Si      0.87310   0.19050   0.49710
Si         Si      0.87310   0.69050   0.99710
Si         Si      0.55950   0.75290   0.37310
Si         Si      0.55950   0.25290   0.87310
Si         Si      0.05950   0.25290   0.37310
Si         Si      0.05950   0.75290   0.87310
Si         Si      0.49710   0.87690   0.55950
Si         Si      0.49710   0.37690   0.05950
Si         Si      0.99710   0.37690   0.55950
Si         Si      0.99710   0.87690   0.05950
Si         Si      0.87690   0.55950   0.49710
Si         Si      0.87690   0.05950   0.99710
Si         Si      0.37690   0.05950   0.49710
Si         Si      0.37690   0.55950   0.99710
Si         Si      0.69050   0.49710   0.37310
Si         Si      0.69050   0.99710   0.87310
Si         Si      0.19050   0.99710   0.37310
Si         Si      0.19050   0.49710   0.87310
Si         Si      0.75290   0.37310   0.55950
Si         Si      0.75290   0.87310   0.05950
Si         Si      0.25290   0.87310   0.55950
Si         Si      0.25290   0.37310   0.05950
Si         Si      0.62690   0.94050   0.74710
Si         Si      0.62690   0.44050   0.24710
Si         Si      0.12690   0.44050   0.74710
Si         Si      0.12690   0.94050   0.24710
Si         Si      0.44050   0.00290   0.62310
Si         Si      0.44050   0.50290   0.12310
Si         Si      0.94050   0.50290   0.62310
Si         Si      0.94050   0.00290   0.12310
Si         Si      0.50290   0.12690   0.80950
Si         Si      0.50290   0.62690   0.30950
Si         Si      0.00290   0.62690   0.80950
Si         Si      0.00290   0.12690   0.30950
Si         Si      0.69050   0.87690   0.75290
Si         Si      0.69050   0.37690   0.25290
Si         Si      0.19050   0.37690   0.75290
Si         Si      0.19050   0.87690   0.25290
Si         Si      0.75290   0.69050   0.87690
Si         Si      0.75290   0.19050   0.37690
Si         Si      0.25290   0.19050   0.87690
Si         Si      0.25290   0.69050   0.37690
Si         Si      0.87690   0.75290   0.69050
Si         Si      0.87690   0.25290   0.19050
Si         Si      0.37690   0.25290   0.69050
Si         Si      0.37690   0.75290   0.19050
Si         Si      0.30950   0.62690   0.50290
Si         Si      0.30950   0.12690   0.00290
Si         Si      0.80950   0.12690   0.50290
Si         Si      0.80950   0.62690   0.00290
Si         Si      0.24710   0.44050   0.62690
Si         Si      0.24710   0.94050   0.12690
Si         Si      0.74710   0.94050   0.62690
Si         Si      0.74710   0.44050   0.12690
Si         Si      0.12310   0.50290   0.44050
Si         Si      0.12310   0.00290   0.94050
Si         Si      0.62310   0.00290   0.44050
Si         Si      0.62310   0.50290   0.94050
Si         Si      0.44050   0.12310   0.50290
Si         Si      0.44050   0.62310   0.00290
Si         Si      0.94050   0.62310   0.50290
Si         Si      0.94050   0.12310   0.00290
Si         Si      0.50290   0.30950   0.62690
Si         Si      0.50290   0.80950   0.12690
Si         Si      0.00290   0.80950   0.62690
Si         Si      0.00290   0.30950   0.12690
Si         Si      0.62690   0.24710   0.44050
Si         Si      0.62690   0.74710   0.94050
Si         Si      0.12690   0.74710   0.44050
Si         Si      0.12690   0.24710   0.94050
Si         Si      0.05950   0.37310   0.25290
Si         Si      0.05950   0.87310   0.75290
Si         Si      0.55950   0.87310   0.25290
Si         Si      0.55950   0.37310   0.75290
Si         Si      0.99710   0.55950   0.37690
Si         Si      0.99710   0.05950   0.87690
Si         Si      0.49710   0.05950   0.37690
Si         Si      0.49710   0.55950   0.87690
Si         Si      0.87310   0.49710   0.19050
Si         Si      0.87310   0.99710   0.69050
Si         Si      0.37310   0.99710   0.19050
Si         Si      0.37310   0.49710   0.69050
Si         Si      0.87690   0.69050   0.75290
Si         Si      0.87690   0.19050   0.25290
Si         Si      0.37690   0.19050   0.75290
Si         Si      0.37690   0.69050   0.25290
Si         Si      0.69050   0.75290   0.87690
Si         Si      0.69050   0.25290   0.37690
Si         Si      0.19050   0.25290   0.87690
Si         Si      0.19050   0.75290   0.37690
Si         Si      0.75290   0.87690   0.69050
Si         Si      0.75290   0.37690   0.19050
Si         Si      0.25290   0.37690   0.69050
Si         Si      0.25290   0.87690   0.19050
Si         Si      0.62690   0.30950   0.50290
Si         Si      0.62690   0.80950   0.00290
Si         Si      0.12690   0.80950   0.50290
Si         Si      0.12690   0.30950   0.00290
Si         Si      0.44050   0.24710   0.62690
Si         Si      0.44050   0.74710   0.12690
Si         Si      0.94050   0.74710   0.62690
Si         Si      0.94050   0.24710   0.12690
Si         Si      0.50290   0.12310   0.44050
Si         Si      0.50290   0.62310   0.94050
Si         Si      0.00290   0.62310   0.44050
Si         Si      0.00290   0.12310   0.94050
Si         Si      0.12310   0.44050   0.50290
Si         Si      0.12310   0.94050   0.00290
Si         Si      0.62310   0.94050   0.50290
Si         Si      0.62310   0.44050   0.00290
Si         Si      0.30950   0.50290   0.62690
Si         Si      0.30950   0.00290   0.12690
Si         Si      0.80950   0.00290   0.62690
Si         Si      0.80950   0.50290   0.12690
Si         Si      0.24710   0.62690   0.44050
Si         Si      0.24710   0.12690   0.94050
Si         Si      0.74710   0.12690   0.44050
Si         Si      0.74710   0.62690   0.94050
Si         Si      0.37310   0.05950   0.25290
Si         Si      0.37310   0.55950   0.75290
Si         Si      0.87310   0.55950   0.25290
Si         Si      0.87310   0.05950   0.75290
Si         Si      0.55950   0.99710   0.37690
Si         Si      0.55950   0.49710   0.87690
Si         Si      0.05950   0.49710   0.37690
Si         Si      0.05950   0.99710   0.87690
Si         Si      0.49710   0.87310   0.19050
Si         Si      0.49710   0.37310   0.69050
Si         Si      0.99710   0.37310   0.19050
Si         Si      0.99710   0.87310   0.69050
Si         Si      0.26470   0.20350   0.32820
Si         Si      0.26470   0.70350   0.82820
Si         Si      0.76470   0.70350   0.32820
Si         Si      0.76470   0.20350   0.82820
Si         Si      0.32820   0.26470   0.20350
Si         Si      0.32820   0.76470   0.70350
Si         Si      0.82820   0.76470   0.20350
Si         Si      0.82820   0.26470   0.70350
Si         Si      0.20350   0.32820   0.26470
Si         Si      0.20350   0.82820   0.76470
Si         Si      0.70350   0.82820   0.26470
Si         Si      0.70350   0.32820   0.76470
Si         Si      0.73530   0.45350   0.57820
Si         Si      0.73530   0.95350   0.07820
Si         Si      0.23530   0.95350   0.57820
Si         Si      0.23530   0.45350   0.07820
Si         Si      0.67180   0.51470   0.45350
Si         Si      0.67180   0.01470   0.95350
Si         Si      0.17180   0.01470   0.45350
Si         Si      0.17180   0.51470   0.95350
Si         Si      0.79650   0.57820   0.51470
Si         Si      0.79650   0.07820   0.01470
Si         Si      0.29650   0.07820   0.51470
Si         Si      0.29650   0.57820   0.01470
Si         Si      0.51470   0.79650   0.57820
Si         Si      0.51470   0.29650   0.07820
Si         Si      0.01470   0.29650   0.57820
Si         Si      0.01470   0.79650   0.07820
Si         Si      0.57820   0.73530   0.45350
Si         Si      0.57820   0.23530   0.95350
Si         Si      0.07820   0.23530   0.45350
Si         Si      0.07820   0.73530   0.95350
Si         Si      0.45350   0.67180   0.51470
Si         Si      0.45350   0.17180   0.01470
Si         Si      0.95350   0.17180   0.51470
Si         Si      0.95350   0.67180   0.01470
Si         Si      0.98530   0.54650   0.82820
Si         Si      0.98530   0.04650   0.32820
Si         Si      0.48530   0.04650   0.82820
Si         Si      0.48530   0.54650   0.32820
Si         Si      0.92180   0.48530   0.70350
Si         Si      0.92180   0.98530   0.20350
Si         Si      0.42180   0.98530   0.70350
Si         Si      0.42180   0.48530   0.20350
Si         Si      0.04650   0.42180   0.76470
Si         Si      0.04650   0.92180   0.26470
Si         Si      0.54650   0.92180   0.76470
Si         Si      0.54650   0.42180   0.26470
Si         Si      0.20350   0.26470   0.32820
Si         Si      0.20350   0.76470   0.82820
Si         Si      0.70350   0.76470   0.32820
Si         Si      0.70350   0.26470   0.82820
Si         Si      0.26470   0.32820   0.20350
Si         Si      0.26470   0.82820   0.70350
Si         Si      0.76470   0.82820   0.20350
Si         Si      0.76470   0.32820   0.70350
Si         Si      0.32820   0.20350   0.26470
Si         Si      0.32820   0.70350   0.76470
Si         Si      0.82820   0.70350   0.26470
Si         Si      0.82820   0.20350   0.76470
Si         Si      0.45350   0.73530   0.57820
Si         Si      0.45350   0.23530   0.07820
Si         Si      0.95350   0.23530   0.57820
Si         Si      0.95350   0.73530   0.07820
Si         Si      0.51470   0.67180   0.45350
Si         Si      0.51470   0.17180   0.95350
Si         Si      0.01470   0.17180   0.45350
Si         Si      0.01470   0.67180   0.95350
Si         Si      0.57820   0.79650   0.51470
Si         Si      0.57820   0.29650   0.01470
Si         Si      0.07820   0.29650   0.51470
Si         Si      0.07820   0.79650   0.01470
Si         Si      0.79650   0.51470   0.57820
Si         Si      0.79650   0.01470   0.07820
Si         Si      0.29650   0.01470   0.57820
Si         Si      0.29650   0.51470   0.07820
Si         Si      0.73530   0.57820   0.45350
Si         Si      0.73530   0.07820   0.95350
Si         Si      0.23530   0.07820   0.45350
Si         Si      0.23530   0.57820   0.95350
Si         Si      0.67180   0.45350   0.51470
Si         Si      0.67180   0.95350   0.01470
Si         Si      0.17180   0.95350   0.51470
Si         Si      0.17180   0.45350   0.01470
Si         Si      0.54650   0.98530   0.82820
Si         Si      0.54650   0.48530   0.32820
Si         Si      0.04650   0.48530   0.82820
Si         Si      0.04650   0.98530   0.32820
Si         Si      0.48530   0.92180   0.70350
Si         Si      0.48530   0.42180   0.20350
Si         Si      0.98530   0.42180   0.70350
Si         Si      0.98530   0.92180   0.20350
Si         Si      0.42180   0.04650   0.76470
Si         Si      0.42180   0.54650   0.26470
Si         Si      0.92180   0.54650   0.76470
Si         Si      0.92180   0.04650   0.26470
Si         Si      0.73530   0.79650   0.67180
Si         Si      0.73530   0.29650   0.17180
Si         Si      0.23530   0.29650   0.67180
Si         Si      0.23530   0.79650   0.17180
Si         Si      0.67180   0.73530   0.79650
Si         Si      0.67180   0.23530   0.29650
Si         Si      0.17180   0.23530   0.79650
Si         Si      0.17180   0.73530   0.29650
Si         Si      0.79650   0.67180   0.73530
Si         Si      0.79650   0.17180   0.23530
Si         Si      0.29650   0.17180   0.73530
Si         Si      0.29650   0.67180   0.23530
Si         Si      0.26470   0.54650   0.42180
Si         Si      0.26470   0.04650   0.92180
Si         Si      0.76470   0.04650   0.42180
Si         Si      0.76470   0.54650   0.92180
Si         Si      0.32820   0.48530   0.54650
Si         Si      0.32820   0.98530   0.04650
Si         Si      0.82820   0.98530   0.54650
Si         Si      0.82820   0.48530   0.04650
Si         Si      0.20350   0.42180   0.48530
Si         Si      0.20350   0.92180   0.98530
Si         Si      0.70350   0.92180   0.48530
Si         Si      0.70350   0.42180   0.98530
Si         Si      0.48530   0.20350   0.42180
Si         Si      0.48530   0.70350   0.92180
Si         Si      0.98530   0.70350   0.42180
Si         Si      0.98530   0.20350   0.92180
Si         Si      0.42180   0.26470   0.54650
Si         Si      0.42180   0.76470   0.04650
Si         Si      0.92180   0.76470   0.54650
Si         Si      0.92180   0.26470   0.04650
Si         Si      0.54650   0.32820   0.48530
Si         Si      0.54650   0.82820   0.98530
Si         Si      0.04650   0.82820   0.48530
Si         Si      0.04650   0.32820   0.98530
Si         Si      0.01470   0.45350   0.17180
Si         Si      0.01470   0.95350   0.67180
Si         Si      0.51470   0.95350   0.17180
Si         Si      0.51470   0.45350   0.67180
Si         Si      0.07820   0.51470   0.29650
Si         Si      0.07820   0.01470   0.79650
Si         Si      0.57820   0.01470   0.29650
Si         Si      0.57820   0.51470   0.79650
Si         Si      0.95350   0.57820   0.23530
Si         Si      0.95350   0.07820   0.73530
Si         Si      0.45350   0.07820   0.23530
Si         Si      0.45350   0.57820   0.73530
Si         Si      0.79650   0.73530   0.67180
Si         Si      0.79650   0.23530   0.17180
Si         Si      0.29650   0.23530   0.67180
Si         Si      0.29650   0.73530   0.17180
Si         Si      0.73530   0.67180   0.79650
Si         Si      0.73530   0.17180   0.29650
Si         Si      0.23530   0.17180   0.79650
Si         Si      0.23530   0.67180   0.29650
Si         Si      0.67180   0.79650   0.73530
Si         Si      0.67180   0.29650   0.23530
Si         Si      0.17180   0.29650   0.73530
Si         Si      0.17180   0.79650   0.23530
Si         Si      0.54650   0.26470   0.42180
Si         Si      0.54650   0.76470   0.92180
Si         Si      0.04650   0.76470   0.42180
Si         Si      0.04650   0.26470   0.92180
Si         Si      0.48530   0.32820   0.54650
Si         Si      0.48530   0.82820   0.04650
Si         Si      0.98530   0.82820   0.54650
Si         Si      0.98530   0.32820   0.04650
Si         Si      0.42180   0.20350   0.48530
Si         Si      0.42180   0.70350   0.98530
Si         Si      0.92180   0.70350   0.48530
Si         Si      0.92180   0.20350   0.98530
Si         Si      0.20350   0.48530   0.42180
Si         Si      0.20350   0.98530   0.92180
Si         Si      0.70350   0.98530   0.42180
Si         Si      0.70350   0.48530   0.92180
Si         Si      0.26470   0.42180   0.54650
Si         Si      0.26470   0.92180   0.04650
Si         Si      0.76470   0.92180   0.54650
Si         Si      0.76470   0.42180   0.04650
Si         Si      0.32820   0.54650   0.48530
Si         Si      0.32820   0.04650   0.98530
Si         Si      0.82820   0.04650   0.48530
Si         Si      0.82820   0.54650   0.98530
Si         Si      0.45350   0.01470   0.17180
Si         Si      0.45350   0.51470   0.67180
Si         Si      0.95350   0.51470   0.17180
Si         Si      0.95350   0.01470   0.67180
Si         Si      0.51470   0.07820   0.29650
Si         Si      0.51470   0.57820   0.79650
Si         Si      0.01470   0.57820   0.29650
Si         Si      0.01470   0.07820   0.79650
Si         Si      0.57820   0.95350   0.23530
Si         Si      0.57820   0.45350   0.73530
Si         Si      0.07820   0.45350   0.23530
Si         Si      0.07820   0.95350   0.73530
Si         Si      0.41460   0.21440   0.27460
Si         Si      0.41460   0.71440   0.77460
Si         Si      0.91460   0.71440   0.27460
Si         Si      0.91460   0.21440   0.77460
Si         Si      0.27460   0.41460   0.21440
Si         Si      0.27460   0.91460   0.71440
Si         Si      0.77460   0.91460   0.21440
Si         Si      0.77460   0.41460   0.71440
Si         Si      0.21440   0.27460   0.41460
Si         Si      0.21440   0.77460   0.91460
Si         Si      0.71440   0.77460   0.41460
Si         Si      0.71440   0.27460   0.91460
Si         Si      0.58540   0.46440   0.52460
Si         Si      0.58540   0.96440   0.02460
Si         Si      0.08540   0.96440   0.52460
Si         Si      0.08540   0.46440   0.02460
Si         Si      0.72540   0.66460   0.46440
Si         Si      0.72540   0.16460   0.96440
Si         Si      0.22540   0.16460   0.46440
Si         Si      0.22540   0.66460   0.96440
Si         Si      0.78560   0.52460   0.66460
Si         Si      0.78560   0.02460   0.16460
Si         Si      0.28560   0.02460   0.66460
Si         Si      0.28560   0.52460   0.16460
Si         Si      0.66460   0.78560   0.52460
Si         Si      0.66460   0.28560   0.02460
Si         Si      0.16460   0.28560   0.52460
Si         Si      0.16460   0.78560   0.02460
Si         Si      0.52460   0.58540   0.46440
Si         Si      0.52460   0.08540   0.96440
Si         Si      0.02460   0.08540   0.46440
Si         Si      0.02460   0.58540   0.96440
Si         Si      0.46440   0.72540   0.66460
Si         Si      0.46440   0.22540   0.16460
Si         Si      0.96440   0.22540   0.66460
Si         Si      0.96440   0.72540   0.16460
Si         Si      0.83540   0.53560   0.77460
Si         Si      0.83540   0.03560   0.27460
Si         Si      0.33540   0.03560   0.77460
Si         Si      0.33540   0.53560   0.27460
Si         Si      0.97540   0.33540   0.71440
Si         Si      0.97540   0.83540   0.21440
Si         Si      0.47540   0.83540   0.71440
Si         Si      0.47540   0.33540   0.21440
Si         Si      0.03560   0.47540   0.91460
Si         Si      0.03560   0.97540   0.41460
Si         Si      0.53560   0.97540   0.91460
Si         Si      0.53560   0.47540   0.41460
Si         Si      0.21440   0.41460   0.27460
Si         Si      0.21440   0.91460   0.77460
Si         Si      0.71440   0.91460   0.27460
Si         Si      0.71440   0.41460   0.77460
Si         Si      0.41460   0.27460   0.21440
Si         Si      0.41460   0.77460   0.71440
Si         Si      0.91460   0.77460   0.21440
Si         Si      0.91460   0.27460   0.71440
Si         Si      0.27460   0.21440   0.41460
Si         Si      0.27460   0.71440   0.91460
Si         Si      0.77460   0.71440   0.41460
Si         Si      0.77460   0.21440   0.91460
Si         Si      0.46440   0.58540   0.52460
Si         Si      0.46440   0.08540   0.02460
Si         Si      0.96440   0.08540   0.52460
Si         Si      0.96440   0.58540   0.02460
Si         Si      0.66460   0.72540   0.46440
Si         Si      0.66460   0.22540   0.96440
Si         Si      0.16460   0.22540   0.46440
Si         Si      0.16460   0.72540   0.96440
Si         Si      0.52460   0.78560   0.66460
Si         Si      0.52460   0.28560   0.16460
Si         Si      0.02460   0.28560   0.66460
Si         Si      0.02460   0.78560   0.16460
Si         Si      0.78560   0.66460   0.52460
Si         Si      0.78560   0.16460   0.02460
Si         Si      0.28560   0.16460   0.52460
Si         Si      0.28560   0.66460   0.02460
Si         Si      0.58540   0.52460   0.46440
Si         Si      0.58540   0.02460   0.96440
Si         Si      0.08540   0.02460   0.46440
Si         Si      0.08540   0.52460   0.96440
Si         Si      0.72540   0.46440   0.66460
Si         Si      0.72540   0.96440   0.16460
Si         Si      0.22540   0.96440   0.66460
Si         Si      0.22540   0.46440   0.16460
Si         Si      0.53560   0.83540   0.77460
Si         Si      0.53560   0.33540   0.27460
Si         Si      0.03560   0.33540   0.77460
Si         Si      0.03560   0.83540   0.27460
Si         Si      0.33540   0.97540   0.71440
Si         Si      0.33540   0.47540   0.21440
Si         Si      0.83540   0.47540   0.71440
Si         Si      0.83540   0.97540   0.21440
Si         Si      0.47540   0.03560   0.91460
Si         Si      0.47540   0.53560   0.41460
Si         Si      0.97540   0.53560   0.91460
Si         Si      0.97540   0.03560   0.41460
Si         Si      0.58540   0.78560   0.72540
Si         Si      0.58540   0.28560   0.22540
Si         Si      0.08540   0.28560   0.72540
Si         Si      0.08540   0.78560   0.22540
Si         Si      0.72540   0.58540   0.78560
Si         Si      0.72540   0.08540   0.28560
Si         Si      0.22540   0.08540   0.78560
Si         Si      0.22540   0.58540   0.28560
Si         Si      0.78560   0.72540   0.58540
Si         Si      0.78560   0.22540   0.08540
Si         Si      0.28560   0.22540   0.58540
Si         Si      0.28560   0.72540   0.08540
Si         Si      0.41460   0.53560   0.47540
Si         Si      0.41460   0.03560   0.97540
Si         Si      0.91460   0.03560   0.47540
Si         Si      0.91460   0.53560   0.97540
Si         Si      0.27460   0.33540   0.53560
Si         Si      0.27460   0.83540   0.03560
Si         Si      0.77460   0.83540   0.53560
Si         Si      0.77460   0.33540   0.03560
Si         Si      0.21440   0.47540   0.33540
Si         Si      0.21440   0.97540   0.83540
Si         Si      0.71440   0.97540   0.33540
Si         Si      0.71440   0.47540   0.83540
Si         Si      0.33540   0.21440   0.47540
Si         Si      0.33540   0.71440   0.97540
Si         Si      0.83540   0.71440   0.47540
Si         Si      0.83540   0.21440   0.97540
Si         Si      0.47540   0.41460   0.53560
Si         Si      0.47540   0.91460   0.03560
Si         Si      0.97540   0.91460   0.53560
Si         Si      0.97540   0.41460   0.03560
Si         Si      0.53560   0.27460   0.33540
Si         Si      0.53560   0.77460   0.83540
Si         Si      0.03560   0.77460   0.33540
Si         Si      0.03560   0.27460   0.83540
Si         Si      0.16460   0.46440   0.22540
Si         Si      0.16460   0.96440   0.72540
Si         Si      0.66460   0.96440   0.22540
Si         Si      0.66460   0.46440   0.72540
Si         Si      0.02460   0.66460   0.28560
Si         Si      0.02460   0.16460   0.78560
Si         Si      0.52460   0.16460   0.28560
Si         Si      0.52460   0.66460   0.78560
Si         Si      0.96440   0.52460   0.08540
Si         Si      0.96440   0.02460   0.58540
Si         Si      0.46440   0.02460   0.08540
Si         Si      0.46440   0.52460   0.58540
Si         Si      0.78560   0.58540   0.72540
Si         Si      0.78560   0.08540   0.22540
Si         Si      0.28560   0.08540   0.72540
Si         Si      0.28560   0.58540   0.22540
Si         Si      0.58540   0.72540   0.78560
Si         Si      0.58540   0.22540   0.28560
Si         Si      0.08540   0.22540   0.78560
Si         Si      0.08540   0.72540   0.28560
Si         Si      0.72540   0.78560   0.58540
Si         Si      0.72540   0.28560   0.08540
Si         Si      0.22540   0.28560   0.58540
Si         Si      0.22540   0.78560   0.08540
Si         Si      0.53560   0.41460   0.47540
Si         Si      0.53560   0.91460   0.97540
Si         Si      0.03560   0.91460   0.47540
Si         Si      0.03560   0.41460   0.97540
Si         Si      0.33540   0.27460   0.53560
Si         Si      0.33540   0.77460   0.03560
Si         Si      0.83540   0.77460   0.53560
Si         Si      0.83540   0.27460   0.03560
Si         Si      0.47540   0.21440   0.33540
Si         Si      0.47540   0.71440   0.83540
Si         Si      0.97540   0.71440   0.33540
Si         Si      0.97540   0.21440   0.83540
Si         Si      0.21440   0.33540   0.47540
Si         Si      0.21440   0.83540   0.97540
Si         Si      0.71440   0.83540   0.47540
Si         Si      0.71440   0.33540   0.97540
Si         Si      0.41460   0.47540   0.53560
Si         Si      0.41460   0.97540   0.03560
Si         Si      0.91460   0.97540   0.53560
Si         Si      0.91460   0.47540   0.03560
Si         Si      0.27460   0.53560   0.33540
Si         Si      0.27460   0.03560   0.83540
Si         Si      0.77460   0.03560   0.33540
Si         Si      0.77460   0.53560   0.83540
Si         Si      0.46440   0.16460   0.22540
Si         Si      0.46440   0.66460   0.72540
Si         Si      0.96440   0.66460   0.22540
Si         Si      0.96440   0.16460   0.72540
Si         Si      0.66460   0.02460   0.28560
Si         Si      0.66460   0.52460   0.78560
Si         Si      0.16460   0.52460   0.28560
Si         Si      0.16460   0.02460   0.78560
Si         Si      0.52460   0.96440   0.08540
Si         Si      0.52460   0.46440   0.58540
Si         Si      0.02460   0.46440   0.08540
Si         Si      0.02460   0.96440   0.58540
O          O       0.21290   0.13600   0.21290
O          O       0.21290   0.63600   0.71290
O          O       0.71290   0.63600   0.21290
O          O       0.71290   0.13600   0.71290
O          O       0.21290   0.21290   0.13600
O          O       0.21290   0.71290   0.63600
O          O       0.71290   0.71290   0.13600
O          O       0.71290   0.21290   0.63600
O          O       0.13600   0.21290   0.21290
O          O       0.13600   0.71290   0.71290
O          O       0.63600   0.71290   0.21290
O          O       0.63600   0.21290   0.71290
O          O       0.78710   0.38600   0.46290
O          O       0.78710   0.88600   0.96290
O          O       0.28710   0.88600   0.46290
O          O       0.28710   0.38600   0.96290
O          O       0.78710   0.46290   0.38600
O          O       0.78710   0.96290   0.88600
O          O       0.28710   0.96290   0.38600
O          O       0.28710   0.46290   0.88600
O          O       0.86400   0.46290   0.46290
O          O       0.86400   0.96290   0.96290
O          O       0.36400   0.96290   0.46290
O          O       0.36400   0.46290   0.96290
O          O       0.46290   0.86400   0.46290
O          O       0.46290   0.36400   0.96290
O          O       0.96290   0.36400   0.46290
O          O       0.96290   0.86400   0.96290
O          O       0.46290   0.78710   0.38600
O          O       0.46290   0.28710   0.88600
O          O       0.96290   0.28710   0.38600
O          O       0.96290   0.78710   0.88600
O          O       0.38600   0.78710   0.46290
O          O       0.38600   0.28710   0.96290
O          O       0.88600   0.28710   0.46290
O          O       0.88600   0.78710   0.96290
O          O       0.03710   0.61400   0.71290
O          O       0.03710   0.11400   0.21290
O          O       0.53710   0.11400   0.71290
O          O       0.53710   0.61400   0.21290
O          O       0.03710   0.53710   0.63600
O          O       0.03710   0.03710   0.13600
O          O       0.53710   0.03710   0.63600
O          O       0.53710   0.53710   0.13600
O          O       0.11400   0.53710   0.71290
O          O       0.11400   0.03710   0.21290
O          O       0.61400   0.03710   0.71290
O          O       0.61400   0.53710   0.21290
O          O       0.78710   0.86400   0.78710
O          O       0.78710   0.36400   0.28710
O          O       0.28710   0.36400   0.78710
O          O       0.28710   0.86400   0.28710
O          O       0.78710   0.78710   0.86400
O          O       0.78710   0.28710   0.36400
O          O       0.28710   0.28710   0.86400
O          O       0.28710   0.78710   0.36400
O          O       0.86400   0.78710   0.78710
O          O       0.86400   0.28710   0.28710
O          O       0.36400   0.28710   0.78710
O          O       0.36400   0.78710   0.28710
O          O       0.21290   0.61400   0.53710
O          O       0.21290   0.11400   0.03710
O          O       0.71290   0.11400   0.53710
O          O       0.71290   0.61400   0.03710
O          O       0.21290   0.53710   0.61400
O          O       0.21290   0.03710   0.11400
O          O       0.71290   0.03710   0.61400
O          O       0.71290   0.53710   0.11400
O          O       0.13600   0.53710   0.53710
O          O       0.13600   0.03710   0.03710
O          O       0.63600   0.03710   0.53710
O          O       0.63600   0.53710   0.03710
O          O       0.53710   0.13600   0.53710
O          O       0.53710   0.63600   0.03710
O          O       0.03710   0.63600   0.53710
O          O       0.03710   0.13600   0.03710
O          O       0.53710   0.21290   0.61400
O          O       0.53710   0.71290   0.11400
O          O       0.03710   0.71290   0.61400
O          O       0.03710   0.21290   0.11400
O          O       0.61400   0.21290   0.53710
O          O       0.61400   0.71290   0.03710
O          O       0.11400   0.71290   0.53710
O          O       0.11400   0.21290   0.03710
O          O       0.96290   0.38600   0.28710
O          O       0.96290   0.88600   0.78710
O          O       0.46290   0.88600   0.28710
O          O       0.46290   0.38600   0.78710
O          O       0.96290   0.46290   0.36400
O          O       0.96290   0.96290   0.86400
O          O       0.46290   0.96290   0.36400
O          O       0.46290   0.46290   0.86400
O          O       0.88600   0.46290   0.28710
O          O       0.88600   0.96290   0.78710
O          O       0.38600   0.96290   0.28710
O          O       0.38600   0.46290   0.78710
O          O       0.15980   0.09020   0.23600
O          O       0.15980   0.59020   0.73600
O          O       0.65980   0.59020   0.23600
O          O       0.65980   0.09020   0.73600
O          O       0.23600   0.15980   0.09020
O          O       0.23600   0.65980   0.59020
O          O       0.73600   0.65980   0.09020
O          O       0.73600   0.15980   0.59020
O          O       0.09020   0.23600   0.15980
O          O       0.09020   0.73600   0.65980
O          O       0.59020   0.73600   0.15980
O          O       0.59020   0.23600   0.65980
O          O       0.84020   0.34020   0.48600
O          O       0.84020   0.84020   0.98600
O          O       0.34020   0.84020   0.48600
O          O       0.34020   0.34020   0.98600
O          O       0.76400   0.40980   0.34020
O          O       0.76400   0.90980   0.84020
O          O       0.26400   0.90980   0.34020
O          O       0.26400   0.40980   0.84020
O          O       0.90980   0.48600   0.40980
O          O       0.90980   0.98600   0.90980
O          O       0.40980   0.98600   0.40980
O          O       0.40980   0.48600   0.90980
O          O       0.40980   0.90980   0.48600
O          O       0.40980   0.40980   0.98600
O          O       0.90980   0.40980   0.48600
O          O       0.90980   0.90980   0.98600
O          O       0.48600   0.84020   0.34020
O          O       0.48600   0.34020   0.84020
O          O       0.98600   0.34020   0.34020
O          O       0.98600   0.84020   0.84020
O          O       0.34020   0.76400   0.40980
O          O       0.34020   0.26400   0.90980
O          O       0.84020   0.26400   0.40980
O          O       0.84020   0.76400   0.90980
O          O       0.09020   0.65980   0.73600
O          O       0.09020   0.15980   0.23600
O          O       0.59020   0.15980   0.73600
O          O       0.59020   0.65980   0.23600
O          O       0.01400   0.59020   0.59020
O          O       0.01400   0.09020   0.09020
O          O       0.51400   0.09020   0.59020
O          O       0.51400   0.59020   0.09020
O          O       0.15980   0.51400   0.65980
O          O       0.15980   0.01400   0.15980
O          O       0.65980   0.01400   0.65980
O          O       0.65980   0.51400   0.15980
O          O       0.15980   0.23600   0.09020
O          O       0.15980   0.73600   0.59020
O          O       0.65980   0.73600   0.09020
O          O       0.65980   0.23600   0.59020
O          O       0.23600   0.09020   0.15980
O          O       0.23600   0.59020   0.65980
O          O       0.73600   0.59020   0.15980
O          O       0.73600   0.09020   0.65980
O          O       0.40980   0.76400   0.34020
O          O       0.40980   0.26400   0.84020
O          O       0.90980   0.26400   0.34020
O          O       0.90980   0.76400   0.84020
O          O       0.48600   0.90980   0.40980
O          O       0.48600   0.40980   0.90980
O          O       0.98600   0.40980   0.40980
O          O       0.98600   0.90980   0.90980
O          O       0.84020   0.48600   0.34020
O          O       0.84020   0.98600   0.84020
O          O       0.34020   0.98600   0.34020
O          O       0.34020   0.48600   0.84020
O          O       0.76400   0.34020   0.40980
O          O       0.76400   0.84020   0.90980
O          O       0.26400   0.84020   0.40980
O          O       0.26400   0.34020   0.90980
O          O       0.59020   0.01400   0.59020
O          O       0.59020   0.51400   0.09020
O          O       0.09020   0.51400   0.59020
O          O       0.09020   0.01400   0.09020
O          O       0.51400   0.15980   0.65980
O          O       0.51400   0.65980   0.15980
O          O       0.01400   0.65980   0.65980
O          O       0.01400   0.15980   0.15980
O          O       0.84020   0.90980   0.76400
O          O       0.84020   0.40980   0.26400
O          O       0.34020   0.40980   0.76400
O          O       0.34020   0.90980   0.26400
O          O       0.15980   0.65980   0.51400
O          O       0.15980   0.15980   0.01400
O          O       0.65980   0.15980   0.51400
O          O       0.65980   0.65980   0.01400
O          O       0.59020   0.09020   0.51400
O          O       0.59020   0.59020   0.01400
O          O       0.09020   0.59020   0.51400
O          O       0.09020   0.09020   0.01400
O          O       0.90980   0.34020   0.26400
O          O       0.90980   0.84020   0.76400
O          O       0.40980   0.84020   0.26400
O          O       0.40980   0.34020   0.76400
O          O       0.21180   0.11330   0.28310
O          O       0.21180   0.61330   0.78310
O          O       0.71180   0.61330   0.28310
O          O       0.71180   0.11330   0.78310
O          O       0.28310   0.21180   0.11330
O          O       0.28310   0.71180   0.61330
O          O       0.78310   0.71180   0.11330
O          O       0.78310   0.21180   0.61330
O          O       0.11330   0.28310   0.21180
O          O       0.11330   0.78310   0.71180
O          O       0.61330   0.78310   0.21180
O          O       0.61330   0.28310   0.71180
O          O       0.78820   0.36330   0.53310
O          O       0.78820   0.86330   0.03310
O          O       0.28820   0.86330   0.53310
O          O       0.28820   0.36330   0.03310
O          O       0.71690   0.46180   0.36330
O          O       0.71690   0.96180   0.86330
O          O       0.21690   0.96180   0.36330
O          O       0.21690   0.46180   0.86330
O          O       0.88670   0.53310   0.46180
O          O       0.88670   0.03310   0.96180
O          O       0.38670   0.03310   0.46180
O          O       0.38670   0.53310   0.96180
O          O       0.46180   0.88670   0.53310
O          O       0.46180   0.38670   0.03310
O          O       0.96180   0.38670   0.53310
O          O       0.96180   0.88670   0.03310
O          O       0.53310   0.78820   0.36330
O          O       0.53310   0.28820   0.86330
O          O       0.03310   0.28820   0.36330
O          O       0.03310   0.78820   0.86330
O          O       0.36330   0.71690   0.46180
O          O       0.36330   0.21690   0.96180
O          O       0.86330   0.21690   0.46180
O          O       0.86330   0.71690   0.96180
O          O       0.03820   0.63670   0.78310
O          O       0.03820   0.13670   0.28310
O          O       0.53820   0.13670   0.78310
O          O       0.53820   0.63670   0.28310
O          O       0.96690   0.53820   0.61330
O          O       0.96690   0.03820   0.11330
O          O       0.46690   0.03820   0.61330
O          O       0.46690   0.53820   0.11330
O          O       0.13670   0.46690   0.71180
O          O       0.13670   0.96690   0.21180
O          O       0.63670   0.96690   0.71180
O          O       0.63670   0.46690   0.21180
O          O       0.11330   0.21180   0.28310
O          O       0.11330   0.71180   0.78310
O          O       0.61330   0.71180   0.28310
O          O       0.61330   0.21180   0.78310
O          O       0.21180   0.28310   0.11330
O          O       0.21180   0.78310   0.61330
O          O       0.71180   0.78310   0.11330
O          O       0.71180   0.28310   0.61330
O          O       0.28310   0.11330   0.21180
O          O       0.28310   0.61330   0.71180
O          O       0.78310   0.61330   0.21180
O          O       0.78310   0.11330   0.71180
O          O       0.36330   0.78820   0.53310
O          O       0.36330   0.28820   0.03310
O          O       0.86330   0.28820   0.53310
O          O       0.86330   0.78820   0.03310
O          O       0.46180   0.71690   0.36330
O          O       0.46180   0.21690   0.86330
O          O       0.96180   0.21690   0.36330
O          O       0.96180   0.71690   0.86330
O          O       0.53310   0.88670   0.46180
O          O       0.53310   0.38670   0.96180
O          O       0.03310   0.38670   0.46180
O          O       0.03310   0.88670   0.96180
O          O       0.88670   0.46180   0.53310
O          O       0.88670   0.96180   0.03310
O          O       0.38670   0.96180   0.53310
O          O       0.38670   0.46180   0.03310
O          O       0.78820   0.53310   0.36330
O          O       0.78820   0.03310   0.86330
O          O       0.28820   0.03310   0.36330
O          O       0.28820   0.53310   0.86330
O          O       0.71690   0.36330   0.46180
O          O       0.71690   0.86330   0.96180
O          O       0.21690   0.86330   0.46180
O          O       0.21690   0.36330   0.96180
O          O       0.63670   0.03820   0.78310
O          O       0.63670   0.53820   0.28310
O          O       0.13670   0.53820   0.78310
O          O       0.13670   0.03820   0.28310
O          O       0.53820   0.96690   0.61330
O          O       0.53820   0.46690   0.11330
O          O       0.03820   0.46690   0.61330
O          O       0.03820   0.96690   0.11330
O          O       0.46690   0.13670   0.71180
O          O       0.46690   0.63670   0.21180
O          O       0.96690   0.63670   0.71180
O          O       0.96690   0.13670   0.21180
O          O       0.78820   0.88670   0.71690
O          O       0.78820   0.38670   0.21690
O          O       0.28820   0.38670   0.71690
O          O       0.28820   0.88670   0.21690
O          O       0.71690   0.78820   0.88670
O          O       0.71690   0.28820   0.38670
O          O       0.21690   0.28820   0.88670
O          O       0.21690   0.78820   0.38670
O          O       0.88670   0.71690   0.78820
O          O       0.88670   0.21690   0.28820
O          O       0.38670   0.21690   0.78820
O          O       0.38670   0.71690   0.28820
O          O       0.21180   0.63670   0.46690
O          O       0.21180   0.13670   0.96690
O          O       0.71180   0.13670   0.46690
O          O       0.71180   0.63670   0.96690
O          O       0.28310   0.53820   0.63670
O          O       0.28310   0.03820   0.13670
O          O       0.78310   0.03820   0.63670
O          O       0.78310   0.53820   0.13670
O          O       0.11330   0.46690   0.53820
O          O       0.11330   0.96690   0.03820
O          O       0.61330   0.96690   0.53820
O          O       0.61330   0.46690   0.03820
O          O       0.53820   0.11330   0.46690
O          O       0.53820   0.61330   0.96690
O          O       0.03820   0.61330   0.46690
O          O       0.03820   0.11330   0.96690
O          O       0.46690   0.21180   0.63670
O          O       0.46690   0.71180   0.13670
O          O       0.96690   0.71180   0.63670
O          O       0.96690   0.21180   0.13670
O          O       0.63670   0.28310   0.53820
O          O       0.63670   0.78310   0.03820
O          O       0.13670   0.78310   0.53820
O          O       0.13670   0.28310   0.03820
O          O       0.96180   0.36330   0.21690
O          O       0.96180   0.86330   0.71690
O          O       0.46180   0.86330   0.21690
O          O       0.46180   0.36330   0.71690
O          O       0.03310   0.46180   0.38670
O          O       0.03310   0.96180   0.88670
O          O       0.53310   0.96180   0.38670
O          O       0.53310   0.46180   0.88670
O          O       0.86330   0.53310   0.28820
O          O       0.86330   0.03310   0.78820
O          O       0.36330   0.03310   0.28820
O          O       0.36330   0.53310   0.78820
O          O       0.88670   0.78820   0.71690
O          O       0.88670   0.28820   0.21690
O          O       0.38670   0.28820   0.71690
O          O       0.38670   0.78820   0.21690
O          O       0.78820   0.71690   0.88670
O          O       0.78820   0.21690   0.38670
O          O       0.28820   0.21690   0.88670
O          O       0.28820   0.71690   0.38670
O          O       0.71690   0.88670   0.78820
O          O       0.71690   0.38670   0.28820
O          O       0.21690   0.38670   0.78820
O          O       0.21690   0.88670   0.28820
O          O       0.63670   0.21180   0.46690
O          O       0.63670   0.71180   0.96690
O          O       0.13670   0.71180   0.46690
O          O       0.13670   0.21180   0.96690
O          O       0.53820   0.28310   0.63670
O          O       0.53820   0.78310   0.13670
O          O       0.03820   0.78310   0.63670
O          O       0.03820   0.28310   0.13670
O          O       0.46690   0.11330   0.53820
O          O       0.46690   0.61330   0.03820
O          O       0.96690   0.61330   0.53820
O          O       0.96690   0.11330   0.03820
O          O       0.11330   0.53820   0.46690
O          O       0.11330   0.03820   0.96690
O          O       0.61330   0.03820   0.46690
O          O       0.61330   0.53820   0.96690
O          O       0.21180   0.46690   0.63670
O          O       0.21180   0.96690   0.13670
O          O       0.71180   0.96690   0.63670
O          O       0.71180   0.46690   0.13670
O          O       0.28310   0.63670   0.53820
O          O       0.28310   0.13670   0.03820
O          O       0.78310   0.13670   0.53820
O          O       0.78310   0.63670   0.03820
O          O       0.36330   0.96180   0.21690
O          O       0.36330   0.46180   0.71690
O          O       0.86330   0.46180   0.21690
O          O       0.86330   0.96180   0.71690
O          O       0.46180   0.03310   0.38670
O          O       0.46180   0.53310   0.88670
O          O       0.96180   0.53310   0.38670
O          O       0.96180   0.03310   0.88670
O          O       0.53310   0.86330   0.28820
O          O       0.53310   0.36330   0.78820
O          O       0.03310   0.36330   0.28820
O          O       0.03310   0.86330   0.78820
O          O       0.16040   0.16040   0.25870
O          O       0.16040   0.66040   0.75870
O          O       0.66040   0.66040   0.25870
O          O       0.66040   0.16040   0.75870
O          O       0.25870   0.16040   0.16040
O          O       0.25870   0.66040   0.66040
O          O       0.75870   0.66040   0.16040
O          O       0.75870   0.16040   0.66040
O          O       0.16040   0.25870   0.16040
O          O       0.16040   0.75870   0.66040
O          O       0.66040   0.75870   0.16040
O          O       0.66040   0.25870   0.66040
O          O       0.83960   0.41040   0.50870
O          O       0.83960   0.91040   0.00870
O          O       0.33960   0.91040   0.50870
O          O       0.33960   0.41040   0.00870
O          O       0.74130   0.41040   0.41040
O          O       0.74130   0.91040   0.91040
O          O       0.24130   0.91040   0.41040
O          O       0.24130   0.41040   0.91040
O          O       0.83960   0.50870   0.41040
O          O       0.83960   0.00870   0.91040
O          O       0.33960   0.00870   0.41040
O          O       0.33960   0.50870   0.91040
O          O       0.41040   0.83960   0.50870
O          O       0.41040   0.33960   0.00870
O          O       0.91040   0.33960   0.50870
O          O       0.91040   0.83960   0.00870
O          O       0.50870   0.83960   0.41040
O          O       0.50870   0.33960   0.91040
O          O       0.00870   0.33960   0.41040
O          O       0.00870   0.83960   0.91040
O          O       0.41040   0.74130   0.41040
O          O       0.41040   0.24130   0.91040
O          O       0.91040   0.24130   0.41040
O          O       0.91040   0.74130   0.91040
O          O       0.08960   0.58960   0.75870
O          O       0.08960   0.08960   0.25870
O          O       0.58960   0.08960   0.75870
O          O       0.58960   0.58960   0.25870
O          O       0.99130   0.58960   0.66040
O          O       0.99130   0.08960   0.16040
O          O       0.49130   0.08960   0.66040
O          O       0.49130   0.58960   0.16040
O          O       0.08960   0.49130   0.66040
O          O       0.08960   0.99130   0.16040
O          O       0.58960   0.99130   0.66040
O          O       0.58960   0.49130   0.16040
O          O       0.83960   0.83960   0.74130
O          O       0.83960   0.33960   0.24130
O          O       0.33960   0.33960   0.74130
O          O       0.33960   0.83960   0.24130
O          O       0.74130   0.83960   0.83960
O          O       0.74130   0.33960   0.33960
O          O       0.24130   0.33960   0.83960
O          O       0.24130   0.83960   0.33960
O          O       0.83960   0.74130   0.83960
O          O       0.83960   0.24130   0.33960
O          O       0.33960   0.24130   0.83960
O          O       0.33960   0.74130   0.33960
O          O       0.16040   0.58960   0.49130
O          O       0.16040   0.08960   0.99130
O          O       0.66040   0.08960   0.49130
O          O       0.66040   0.58960   0.99130
O          O       0.25870   0.58960   0.58960
O          O       0.25870   0.08960   0.08960
O          O       0.75870   0.08960   0.58960
O          O       0.75870   0.58960   0.08960
O          O       0.16040   0.49130   0.58960
O          O       0.16040   0.99130   0.08960
O          O       0.66040   0.99130   0.58960
O          O       0.66040   0.49130   0.08960
O          O       0.58960   0.16040   0.49130
O          O       0.58960   0.66040   0.99130
O          O       0.08960   0.66040   0.49130
O          O       0.08960   0.16040   0.99130
O          O       0.49130   0.16040   0.58960
O          O       0.49130   0.66040   0.08960
O          O       0.99130   0.66040   0.58960
O          O       0.99130   0.16040   0.08960
O          O       0.58960   0.25870   0.58960
O          O       0.58960   0.75870   0.08960
O          O       0.08960   0.75870   0.58960
O          O       0.08960   0.25870   0.08960
O          O       0.91040   0.41040   0.24130
O          O       0.91040   0.91040   0.74130
O          O       0.41040   0.91040   0.24130
O          O       0.41040   0.41040   0.74130
O          O       0.00870   0.41040   0.33960
O          O       0.00870   0.91040   0.83960
O          O       0.50870   0.91040   0.33960
O          O       0.50870   0.41040   0.83960
O          O       0.91040   0.50870   0.33960
O          O       0.91040   0.00870   0.83960
O          O       0.41040   0.00870   0.33960
O          O       0.41040   0.50870   0.83960
O          O       0.34300   0.09300   0.25000
O          O       0.34300   0.59300   0.75000
O          O       0.84300   0.59300   0.25000
O          O       0.84300   0.09300   0.75000
O          O       0.25000   0.34300   0.09300
O          O       0.25000   0.84300   0.59300
O          O       0.75000   0.84300   0.09300
O          O       0.75000   0.34300   0.59300
O          O       0.09300   0.25000   0.34300
O          O       0.09300   0.75000   0.84300
O          O       0.59300   0.75000   0.34300
O          O       0.59300   0.25000   0.84300
O          O       0.65700   0.34300   0.50000
O          O       0.65700   0.84300   0.00000
O          O       0.15700   0.84300   0.50000
O          O       0.15700   0.34300   0.00000
O          O       0.75000   0.59300   0.34300
O          O       0.75000   0.09300   0.84300
O          O       0.25000   0.09300   0.34300
O          O       0.25000   0.59300   0.84300
O          O       0.90700   0.50000   0.59300
O          O       0.90700   0.00000   0.09300
O          O       0.40700   0.00000   0.59300
O          O       0.40700   0.50000   0.09300
O          O       0.59300   0.90700   0.50000
O          O       0.59300   0.40700   0.00000
O          O       0.09300   0.40700   0.50000
O          O       0.09300   0.90700   0.00000
O          O       0.50000   0.65700   0.34300
O          O       0.50000   0.15700   0.84300
O          O       0.00000   0.15700   0.34300
O          O       0.00000   0.65700   0.84300
O          O       0.34300   0.75000   0.59300
O          O       0.34300   0.25000   0.09300
O          O       0.84300   0.25000   0.59300
O          O       0.84300   0.75000   0.09300
O          O       0.90700   0.65700   0.75000
O          O       0.90700   0.15700   0.25000
O          O       0.40700   0.15700   0.75000
O          O       0.40700   0.65700   0.25000
O          O       0.00000   0.40700   0.59300
O          O       0.00000   0.90700   0.09300
O          O       0.50000   0.90700   0.59300
O          O       0.50000   0.40700   0.09300
O          O       0.15700   0.50000   0.84300
O          O       0.15700   0.00000   0.34300
O          O       0.65700   0.00000   0.84300
O          O       0.65700   0.50000   0.34300
O          O       0.09300   0.34300   0.25000
O          O       0.09300   0.84300   0.75000
O          O       0.59300   0.84300   0.25000
O          O       0.59300   0.34300   0.75000
O          O       0.34300   0.65700   0.50000
O          O       0.34300   0.15700   0.00000
O          O       0.84300   0.15700   0.50000
O          O       0.84300   0.65700   0.00000
O          O       0.90700   0.59300   0.50000
O          O       0.90700   0.09300   0.00000
O          O       0.40700   0.09300   0.50000
O          O       0.40700   0.59300   0.00000
O          O       0.65700   0.90700   0.75000
O          O       0.65700   0.40700   0.25000
O          O       0.15700   0.40700   0.75000
O          O       0.15700   0.90700   0.25000
O          O       0.75000   0.65700   0.90700
O          O       0.75000   0.15700   0.40700
O          O       0.25000   0.15700   0.90700
O          O       0.25000   0.65700   0.40700
O          O       0.90700   0.75000   0.65700
O          O       0.90700   0.25000   0.15700
O          O       0.40700   0.25000   0.65700
O          O       0.40700   0.75000   0.15700
O          O       0.25000   0.40700   0.65700
O          O       0.25000   0.90700   0.15700
O          O       0.75000   0.90700   0.65700
O          O       0.75000   0.40700   0.15700
O          O       0.09300   0.50000   0.40700
O          O       0.09300   0.00000   0.90700
O          O       0.59300   0.00000   0.40700
O          O       0.59300   0.50000   0.90700
O          O       0.50000   0.34300   0.65700
O          O       0.50000   0.84300   0.15700
O          O       0.00000   0.84300   0.65700
O          O       0.00000   0.34300   0.15700
O          O       0.65700   0.25000   0.40700
O          O       0.65700   0.75000   0.90700
O          O       0.15700   0.75000   0.40700
O          O       0.15700   0.25000   0.90700
O          O       0.00000   0.59300   0.40700
O          O       0.00000   0.09300   0.90700
O          O       0.50000   0.09300   0.40700
O          O       0.50000   0.59300   0.90700
O          O       0.84300   0.50000   0.15700
O          O       0.84300   0.00000   0.65700
O          O       0.34300   0.00000   0.15700
O          O       0.34300   0.50000   0.65700
O          O       0.28510   0.12200   0.28510
O          O       0.28510   0.62200   0.78510
O          O       0.78510   0.62200   0.28510
O          O       0.78510   0.12200   0.78510
O          O       0.28510   0.28510   0.12200
O          O       0.28510   0.78510   0.62200
O          O       0.78510   0.78510   0.12200
O          O       0.78510   0.28510   0.62200
O          O       0.12200   0.28510   0.28510
O          O       0.12200   0.78510   0.78510
O          O       0.62200   0.78510   0.28510
O          O       0.62200   0.28510   0.78510
O          O       0.71490   0.37200   0.53510
O          O       0.71490   0.87200   0.03510
O          O       0.21490   0.87200   0.53510
O          O       0.21490   0.37200   0.03510
O          O       0.71490   0.53510   0.37200
O          O       0.71490   0.03510   0.87200
O          O       0.21490   0.03510   0.37200
O          O       0.21490   0.53510   0.87200
O          O       0.87800   0.53510   0.53510
O          O       0.87800   0.03510   0.03510
O          O       0.37800   0.03510   0.53510
O          O       0.37800   0.53510   0.03510
O          O       0.53510   0.87800   0.53510
O          O       0.53510   0.37800   0.03510
O          O       0.03510   0.37800   0.53510
O          O       0.03510   0.87800   0.03510
O          O       0.53510   0.71490   0.37200
O          O       0.53510   0.21490   0.87200
O          O       0.03510   0.21490   0.37200
O          O       0.03510   0.71490   0.87200
O          O       0.37200   0.71490   0.53510
O          O       0.37200   0.21490   0.03510
O          O       0.87200   0.21490   0.53510
O          O       0.87200   0.71490   0.03510
O          O       0.96490   0.62800   0.78510
O          O       0.96490   0.12800   0.28510
O          O       0.46490   0.12800   0.78510
O          O       0.46490   0.62800   0.28510
O          O       0.96490   0.46490   0.62200
O          O       0.96490   0.96490   0.12200
O          O       0.46490   0.96490   0.62200
O          O       0.46490   0.46490   0.12200
O          O       0.12800   0.46490   0.78510
O          O       0.12800   0.96490   0.28510
O          O       0.62800   0.96490   0.78510
O          O       0.62800   0.46490   0.28510
O          O       0.71490   0.87800   0.71490
O          O       0.71490   0.37800   0.21490
O          O       0.21490   0.37800   0.71490
O          O       0.21490   0.87800   0.21490
O          O       0.71490   0.71490   0.87800
O          O       0.71490   0.21490   0.37800
O          O       0.21490   0.21490   0.87800
O          O       0.21490   0.71490   0.37800
O          O       0.87800   0.71490   0.71490
O          O       0.87800   0.21490   0.21490
O          O       0.37800   0.21490   0.71490
O          O       0.37800   0.71490   0.21490
O          O       0.28510   0.62800   0.46490
O          O       0.28510   0.12800   0.96490
O          O       0.78510   0.12800   0.46490
O          O       0.78510   0.62800   0.96490
O          O       0.28510   0.46490   0.62800
O          O       0.28510   0.96490   0.12800
O          O       0.78510   0.96490   0.62800
O          O       0.78510   0.46490   0.12800
O          O       0.12200   0.46490   0.46490
O          O       0.12200   0.96490   0.96490
O          O       0.62200   0.96490   0.46490
O          O       0.62200   0.46490   0.96490
O          O       0.46490   0.12200   0.46490
O          O       0.46490   0.62200   0.96490
O          O       0.96490   0.62200   0.46490
O          O       0.96490   0.12200   0.96490
O          O       0.46490   0.28510   0.62800
O          O       0.46490   0.78510   0.12800
O          O       0.96490   0.78510   0.62800
O          O       0.96490   0.28510   0.12800
O          O       0.62800   0.28510   0.46490
O          O       0.62800   0.78510   0.96490
O          O       0.12800   0.78510   0.46490
O          O       0.12800   0.28510   0.96490
O          O       0.03510   0.37200   0.21490
O          O       0.03510   0.87200   0.71490
O          O       0.53510   0.87200   0.21490
O          O       0.53510   0.37200   0.71490
O          O       0.03510   0.53510   0.37800
O          O       0.03510   0.03510   0.87800
O          O       0.53510   0.03510   0.37800
O          O       0.53510   0.53510   0.87800
O          O       0.87200   0.53510   0.21490
O          O       0.87200   0.03510   0.71490
O          O       0.37200   0.03510   0.21490
O          O       0.37200   0.53510   0.71490
O          O       0.32700   0.16450   0.24180
O          O       0.32700   0.66450   0.74180
O          O       0.82700   0.66450   0.24180
O          O       0.82700   0.16450   0.74180
O          O       0.24180   0.32700   0.16450
O          O       0.24180   0.82700   0.66450
O          O       0.74180   0.82700   0.16450
O          O       0.74180   0.32700   0.66450
O          O       0.16450   0.24180   0.32700
O          O       0.16450   0.74180   0.82700
O          O       0.66450   0.74180   0.32700
O          O       0.66450   0.24180   0.82700
O          O       0.67300   0.41450   0.49180
O          O       0.67300   0.91450   0.99180
O          O       0.17300   0.91450   0.49180
O          O       0.17300   0.41450   0.99180
O          O       0.75820   0.57700   0.41450
O          O       0.75820   0.07700   0.91450
O          O       0.25820   0.07700   0.41450
O          O       0.25820   0.57700   0.91450
O          O       0.83550   0.49180   0.57700
O          O       0.83550   0.99180   0.07700
O          O       0.33550   0.99180   0.57700
O          O       0.33550   0.49180   0.07700
O          O       0.57700   0.83550   0.49180
O          O       0.57700   0.33550   0.99180
O          O       0.07700   0.33550   0.49180
O          O       0.07700   0.83550   0.99180
O          O       0.49180   0.67300   0.41450
O          O       0.49180   0.17300   0.91450
O          O       0.99180   0.17300   0.41450
O          O       0.99180   0.67300   0.91450
O          O       0.41450   0.75820   0.57700
O          O       0.41450   0.25820   0.07700
O          O       0.91450   0.25820   0.57700
O          O       0.91450   0.75820   0.07700
O          O       0.92300   0.58550   0.74180
O          O       0.92300   0.08550   0.24180
O          O       0.42300   0.08550   0.74180
O          O       0.42300   0.58550   0.24180
O          O       0.00820   0.42300   0.66450
O          O       0.00820   0.92300   0.16450
O          O       0.50820   0.92300   0.66450
O          O       0.50820   0.42300   0.16450
O          O       0.08550   0.50820   0.82700
O          O       0.08550   0.00820   0.32700
O          O       0.58550   0.00820   0.82700
O          O       0.58550   0.50820   0.32700
O          O       0.16450   0.32700   0.24180
O          O       0.16450   0.82700   0.74180
O          O       0.66450   0.82700   0.24180
O          O       0.66450   0.32700   0.74180
O          O       0.32700   0.24180   0.16450
O          O       0.32700   0.74180   0.66450
O          O       0.82700   0.74180   0.16450
O          O       0.82700   0.24180   0.66450
O          O       0.24180   0.16450   0.32700
O          O       0.24180   0.66450   0.82700
O          O       0.74180   0.66450   0.32700
O          O       0.74180   0.16450   0.82700
O          O       0.41450   0.67300   0.49180
O          O       0.41450   0.17300   0.99180
O          O       0.91450   0.17300   0.49180
O          O       0.91450   0.67300   0.99180
O          O       0.57700   0.75820   0.41450
O          O       0.57700   0.25820   0.91450
O          O       0.07700   0.25820   0.41450
O          O       0.07700   0.75820   0.91450
O          O       0.49180   0.83550   0.57700
O          O       0.49180   0.33550   0.07700
O          O       0.99180   0.33550   0.57700
O          O       0.99180   0.83550   0.07700
O          O       0.83550   0.57700   0.49180
O          O       0.83550   0.07700   0.99180
O          O       0.33550   0.07700   0.49180
O          O       0.33550   0.57700   0.99180
O          O       0.67300   0.49180   0.41450
O          O       0.67300   0.99180   0.91450
O          O       0.17300   0.99180   0.41450
O          O       0.17300   0.49180   0.91450
O          O       0.75820   0.41450   0.57700
O          O       0.75820   0.91450   0.07700
O          O       0.25820   0.91450   0.57700
O          O       0.25820   0.41450   0.07700
O          O       0.58550   0.92300   0.74180
O          O       0.58550   0.42300   0.24180
O          O       0.08550   0.42300   0.74180
O          O       0.08550   0.92300   0.24180
O          O       0.42300   0.00820   0.66450
O          O       0.42300   0.50820   0.16450
O          O       0.92300   0.50820   0.66450
O          O       0.92300   0.00820   0.16450
O          O       0.50820   0.08550   0.82700
O          O       0.50820   0.58550   0.32700
O          O       0.00820   0.58550   0.82700
O          O       0.00820   0.08550   0.32700
O          O       0.67300   0.83550   0.75820
O          O       0.67300   0.33550   0.25820
O          O       0.17300   0.33550   0.75820
O          O       0.17300   0.83550   0.25820
O          O       0.75820   0.67300   0.83550
O          O       0.75820   0.17300   0.33550
O          O       0.25820   0.17300   0.83550
O          O       0.25820   0.67300   0.33550
O          O       0.83550   0.75820   0.67300
O          O       0.83550   0.25820   0.17300
O          O       0.33550   0.25820   0.67300
O          O       0.33550   0.75820   0.17300
O          O       0.32700   0.58550   0.50820
O          O       0.32700   0.08550   0.00820
O          O       0.82700   0.08550   0.50820
O          O       0.82700   0.58550   0.00820
O          O       0.24180   0.42300   0.58550
O          O       0.24180   0.92300   0.08550
O          O       0.74180   0.92300   0.58550
O          O       0.74180   0.42300   0.08550
O          O       0.16450   0.50820   0.42300
O          O       0.16450   0.00820   0.92300
O          O       0.66450   0.00820   0.42300
O          O       0.66450   0.50820   0.92300
O          O       0.42300   0.16450   0.50820
O          O       0.42300   0.66450   0.00820
O          O       0.92300   0.66450   0.50820
O          O       0.92300   0.16450   0.00820
O          O       0.50820   0.32700   0.58550
O          O       0.50820   0.82700   0.08550
O          O       0.00820   0.82700   0.58550
O          O       0.00820   0.32700   0.08550
O          O       0.58550   0.24180   0.42300
O          O       0.58550   0.74180   0.92300
O          O       0.08550   0.74180   0.42300
O          O       0.08550   0.24180   0.92300
O          O       0.07700   0.41450   0.25820
O          O       0.07700   0.91450   0.75820
O          O       0.57700   0.91450   0.25820
O          O       0.57700   0.41450   0.75820
O          O       0.99180   0.57700   0.33550
O          O       0.99180   0.07700   0.83550
O          O       0.49180   0.07700   0.33550
O          O       0.49180   0.57700   0.83550
O          O       0.91450   0.49180   0.17300
O          O       0.91450   0.99180   0.67300
O          O       0.41450   0.99180   0.17300
O          O       0.41450   0.49180   0.67300
O          O       0.83550   0.67300   0.75820
O          O       0.83550   0.17300   0.25820
O          O       0.33550   0.17300   0.75820
O          O       0.33550   0.67300   0.25820
O          O       0.67300   0.75820   0.83550
O          O       0.67300   0.25820   0.33550
O          O       0.17300   0.25820   0.83550
O          O       0.17300   0.75820   0.33550
O          O       0.75820   0.83550   0.67300
O          O       0.75820   0.33550   0.17300
O          O       0.25820   0.33550   0.67300
O          O       0.25820   0.83550   0.17300
O          O       0.58550   0.32700   0.50820
O          O       0.58550   0.82700   0.00820
O          O       0.08550   0.82700   0.50820
O          O       0.08550   0.32700   0.00820
O          O       0.42300   0.24180   0.58550
O          O       0.42300   0.74180   0.08550
O          O       0.92300   0.74180   0.58550
O          O       0.92300   0.24180   0.08550
O          O       0.50820   0.16450   0.42300
O          O       0.50820   0.66450   0.92300
O          O       0.00820   0.66450   0.42300
O          O       0.00820   0.16450   0.92300
O          O       0.16450   0.42300   0.50820
O          O       0.16450   0.92300   0.00820
O          O       0.66450   0.92300   0.50820
O          O       0.66450   0.42300   0.00820
O          O       0.32700   0.50820   0.58550
O          O       0.32700   0.00820   0.08550
O          O       0.82700   0.00820   0.58550
O          O       0.82700   0.50820   0.08550
O          O       0.24180   0.58550   0.42300
O          O       0.24180   0.08550   0.92300
O          O       0.74180   0.08550   0.42300
O          O       0.74180   0.58550   0.92300
O          O       0.41450   0.07700   0.25820
O          O       0.41450   0.57700   0.75820
O          O       0.91450   0.57700   0.25820
O          O       0.91450   0.07700   0.75820
O          O       0.57700   0.99180   0.33550
O          O       0.57700   0.49180   0.83550
O          O       0.07700   0.49180   0.33550
O          O       0.07700   0.99180   0.83550
O          O       0.49180   0.91450   0.17300
O          O       0.49180   0.41450   0.67300
O          O       0.99180   0.41450   0.17300
O          O       0.99180   0.91450   0.67300
O          O       0.28040   0.21060   0.36990
O          O       0.28040   0.71060   0.86990
O          O       0.78040   0.71060   0.36990
O          O       0.78040   0.21060   0.86990
O          O       0.36990   0.28040   0.21060
O          O       0.36990   0.78040   0.71060
O          O       0.86990   0.78040   0.21060
O          O       0.86990   0.28040   0.71060
O          O       0.21060   0.36990   0.28040
O          O       0.21060   0.86990   0.78040
O          O       0.71060   0.86990   0.28040
O          O       0.71060   0.36990   0.78040
O          O       0.71960   0.46060   0.61990
O          O       0.71960   0.96060   0.11990
O          O       0.21960   0.96060   0.61990
O          O       0.21960   0.46060   0.11990
O          O       0.63010   0.53040   0.46060
O          O       0.63010   0.03040   0.96060
O          O       0.13010   0.03040   0.46060
O          O       0.13010   0.53040   0.96060
O          O       0.78940   0.61990   0.53040
O          O       0.78940   0.11990   0.03040
O          O       0.28940   0.11990   0.53040
O          O       0.28940   0.61990   0.03040
O          O       0.53040   0.78940   0.61990
O          O       0.53040   0.28940   0.11990
O          O       0.03040   0.28940   0.61990
O          O       0.03040   0.78940   0.11990
O          O       0.61990   0.71960   0.46060
O          O       0.61990   0.21960   0.96060
O          O       0.11990   0.21960   0.46060
O          O       0.11990   0.71960   0.96060
O          O       0.46060   0.63010   0.53040
O          O       0.46060   0.13010   0.03040
O          O       0.96060   0.13010   0.53040
O          O       0.96060   0.63010   0.03040
O          O       0.96960   0.53940   0.86990
O          O       0.96960   0.03940   0.36990
O          O       0.46960   0.03940   0.86990
O          O       0.46960   0.53940   0.36990
O          O       0.88010   0.46960   0.71060
O          O       0.88010   0.96960   0.21060
O          O       0.38010   0.96960   0.71060
O          O       0.38010   0.46960   0.21060
O          O       0.03940   0.38010   0.78040
O          O       0.03940   0.88010   0.28040
O          O       0.53940   0.88010   0.78040
O          O       0.53940   0.38010   0.28040
O          O       0.21060   0.28040   0.36990
O          O       0.21060   0.78040   0.86990
O          O       0.71060   0.78040   0.36990
O          O       0.71060   0.28040   0.86990
O          O       0.28040   0.36990   0.21060
O          O       0.28040   0.86990   0.71060
O          O       0.78040   0.86990   0.21060
O          O       0.78040   0.36990   0.71060
O          O       0.36990   0.21060   0.28040
O          O       0.36990   0.71060   0.78040
O          O       0.86990   0.71060   0.28040
O          O       0.86990   0.21060   0.78040
O          O       0.46060   0.71960   0.61990
O          O       0.46060   0.21960   0.11990
O          O       0.96060   0.21960   0.61990
O          O       0.96060   0.71960   0.11990
O          O       0.53040   0.63010   0.46060
O          O       0.53040   0.13010   0.96060
O          O       0.03040   0.13010   0.46060
O          O       0.03040   0.63010   0.96060
O          O       0.61990   0.78940   0.53040
O          O       0.61990   0.28940   0.03040
O          O       0.11990   0.28940   0.53040
O          O       0.11990   0.78940   0.03040
O          O       0.78940   0.53040   0.61990
O          O       0.78940   0.03040   0.11990
O          O       0.28940   0.03040   0.61990
O          O       0.28940   0.53040   0.11990
O          O       0.71960   0.61990   0.46060
O          O       0.71960   0.11990   0.96060
O          O       0.21960   0.11990   0.46060
O          O       0.21960   0.61990   0.96060
O          O       0.63010   0.46060   0.53040
O          O       0.63010   0.96060   0.03040
O          O       0.13010   0.96060   0.53040
O          O       0.13010   0.46060   0.03040
O          O       0.53940   0.96960   0.86990
O          O       0.53940   0.46960   0.36990
O          O       0.03940   0.46960   0.86990
O          O       0.03940   0.96960   0.36990
O          O       0.46960   0.88010   0.71060
O          O       0.46960   0.38010   0.21060
O          O       0.96960   0.38010   0.71060
O          O       0.96960   0.88010   0.21060
O          O       0.38010   0.03940   0.78040
O          O       0.38010   0.53940   0.28040
O          O       0.88010   0.53940   0.78040
O          O       0.88010   0.03940   0.28040
O          O       0.71960   0.78940   0.63010
O          O       0.71960   0.28940   0.13010
O          O       0.21960   0.28940   0.63010
O          O       0.21960   0.78940   0.13010
O          O       0.63010   0.71960   0.78940
O          O       0.63010   0.21960   0.28940
O          O       0.13010   0.21960   0.78940
O          O       0.13010   0.71960   0.28940
O          O       0.78940   0.63010   0.71960
O          O       0.78940   0.13010   0.21960
O          O       0.28940   0.13010   0.71960
O          O       0.28940   0.63010   0.21960
O          O       0.28040   0.53940   0.38010
O          O       0.28040   0.03940   0.88010
O          O       0.78040   0.03940   0.38010
O          O       0.78040   0.53940   0.88010
O          O       0.36990   0.46960   0.53940
O          O       0.36990   0.96960   0.03940
O          O       0.86990   0.96960   0.53940
O          O       0.86990   0.46960   0.03940
O          O       0.21060   0.38010   0.46960
O          O       0.21060   0.88010   0.96960
O          O       0.71060   0.88010   0.46960
O          O       0.71060   0.38010   0.96960
O          O       0.46960   0.21060   0.38010
O          O       0.46960   0.71060   0.88010
O          O       0.96960   0.71060   0.38010
O          O       0.96960   0.21060   0.88010
O          O       0.38010   0.28040   0.53940
O          O       0.38010   0.78040   0.03940
O          O       0.88010   0.78040   0.53940
O          O       0.88010   0.28040   0.03940
O          O       0.53940   0.36990   0.46960
O          O       0.53940   0.86990   0.96960
O          O       0.03940   0.86990   0.46960
O          O       0.03940   0.36990   0.96960
O          O       0.03040   0.46060   0.13010
O          O       0.03040   0.96060   0.63010
O          O       0.53040   0.96060   0.13010
O          O       0.53040   0.46060   0.63010
O          O       0.11990   0.53040   0.28940
O          O       0.11990   0.03040   0.78940
O          O       0.61990   0.03040   0.28940
O          O       0.61990   0.53040   0.78940
O          O       0.96060   0.61990   0.21960
O          O       0.96060   0.11990   0.71960
O          O       0.46060   0.11990   0.21960
O          O       0.46060   0.61990   0.71960
O          O       0.78940   0.71960   0.63010
O          O       0.78940   0.21960   0.13010
O          O       0.28940   0.21960   0.63010
O          O       0.28940   0.71960   0.13010
O          O       0.71960   0.63010   0.78940
O          O       0.71960   0.13010   0.28940
O          O       0.21960   0.13010   0.78940
O          O       0.21960   0.63010   0.28940
O          O       0.63010   0.78940   0.71960
O          O       0.63010   0.28940   0.21960
O          O       0.13010   0.28940   0.71960
O          O       0.13010   0.78940   0.21960
O          O       0.53940   0.28040   0.38010
O          O       0.53940   0.78040   0.88010
O          O       0.03940   0.78040   0.38010
O          O       0.03940   0.28040   0.88010
O          O       0.46960   0.36990   0.53940
O          O       0.46960   0.86990   0.03940
O          O       0.96960   0.86990   0.53940
O          O       0.96960   0.36990   0.03940
O          O       0.38010   0.21060   0.46960
O          O       0.38010   0.71060   0.96960
O          O       0.88010   0.71060   0.46960
O          O       0.88010   0.21060   0.96960
O          O       0.21060   0.46960   0.38010
O          O       0.21060   0.96960   0.88010
O          O       0.71060   0.96960   0.38010
O          O       0.71060   0.46960   0.88010
O          O       0.28040   0.38010   0.53940
O          O       0.28040   0.88010   0.03940
O          O       0.78040   0.88010   0.53940
O          O       0.78040   0.38010   0.03940
O          O       0.36990   0.53940   0.46960
O          O       0.36990   0.03940   0.96960
O          O       0.86990   0.03940   0.46960
O          O       0.86990   0.53940   0.96960
O          O       0.46060   0.03040   0.13010
O          O       0.46060   0.53040   0.63010
O          O       0.96060   0.53040   0.13010
O          O       0.96060   0.03040   0.63010
O          O       0.53040   0.11990   0.28940
O          O       0.53040   0.61990   0.78940
O          O       0.03040   0.61990   0.28940
O          O       0.03040   0.11990   0.78940
O          O       0.61990   0.96060   0.21960
O          O       0.61990   0.46060   0.71960
O          O       0.11990   0.46060   0.21960
O          O       0.11990   0.96060   0.71960
O          O       0.29950   0.20120   0.29950
O          O       0.29950   0.70120   0.79950
O          O       0.79950   0.70120   0.29950
O          O       0.79950   0.20120   0.79950
O          O       0.29950   0.29950   0.20120
O          O       0.29950   0.79950   0.70120
O          O       0.79950   0.79950   0.20120
O          O       0.79950   0.29950   0.70120
O          O       0.20120   0.29950   0.29950
O          O       0.20120   0.79950   0.79950
O          O       0.70120   0.79950   0.29950
O          O       0.70120   0.29950   0.79950
O          O       0.70050   0.45120   0.54950
O          O       0.70050   0.95120   0.04950
O          O       0.20050   0.95120   0.54950
O          O       0.20050   0.45120   0.04950
O          O       0.70050   0.54950   0.45120
O          O       0.70050   0.04950   0.95120
O          O       0.20050   0.04950   0.45120
O          O       0.20050   0.54950   0.95120
O          O       0.79880   0.54950   0.54950
O          O       0.79880   0.04950   0.04950
O          O       0.29880   0.04950   0.54950
O          O       0.29880   0.54950   0.04950
O          O       0.54950   0.79880   0.54950
O          O       0.54950   0.29880   0.04950
O          O       0.04950   0.29880   0.54950
O          O       0.04950   0.79880   0.04950
O          O       0.54950   0.70050   0.45120
O          O       0.54950   0.20050   0.95120
O          O       0.04950   0.20050   0.45120
O          O       0.04950   0.70050   0.95120
O          O       0.45120   0.70050   0.54950
O          O       0.45120   0.20050   0.04950
O          O       0.95120   0.20050   0.54950
O          O       0.95120   0.70050   0.04950
O          O       0.95050   0.54880   0.79950
O          O       0.95050   0.04880   0.29950
O          O       0.45050   0.04880   0.79950
O          O       0.45050   0.54880   0.29950
O          O       0.95050   0.45050   0.70120
O          O       0.95050   0.95050   0.20120
O          O       0.45050   0.95050   0.70120
O          O       0.45050   0.45050   0.20120
O          O       0.04880   0.45050   0.79950
O          O       0.04880   0.95050   0.29950
O          O       0.54880   0.95050   0.79950
O          O       0.54880   0.45050   0.29950
O          O       0.70050   0.79880   0.70050
O          O       0.70050   0.29880   0.20050
O          O       0.20050   0.29880   0.70050
O          O       0.20050   0.79880   0.20050
O          O       0.70050   0.70050   0.79880
O          O       0.70050   0.20050   0.29880
O          O       0.20050   0.20050   0.79880
O          O       0.20050   0.70050   0.29880
O          O       0.79880   0.70050   0.70050
O          O       0.79880   0.20050   0.20050
O          O       0.29880   0.20050   0.70050
O          O       0.29880   0.70050   0.20050
O          O       0.29950   0.54880   0.45050
O          O       0.29950   0.04880   0.95050
O          O       0.79950   0.04880   0.45050
O          O       0.79950   0.54880   0.95050
O          O       0.29950   0.45050   0.54880
O          O       0.29950   0.95050   0.04880
O          O       0.79950   0.95050   0.54880
O          O       0.79950   0.45050   0.04880
O          O       0.20120   0.45050   0.45050
O          O       0.20120   0.95050   0.95050
O          O       0.70120   0.95050   0.45050
O          O       0.70120   0.45050   0.95050
O          O       0.45050   0.20120   0.45050
O          O       0.45050   0.70120   0.95050
O          O       0.95050   0.70120   0.45050
O          O       0.95050   0.20120   0.95050
O          O       0.45050   0.29950   0.54880
O          O       0.45050   0.79950   0.04880
O          O       0.95050   0.79950   0.54880
O          O       0.95050   0.29950   0.04880
O          O       0.54880   0.29950   0.45050
O          O       0.54880   0.79950   0.95050
O          O       0.04880   0.79950   0.45050
O          O       0.04880   0.29950   0.95050
O          O       0.04950   0.45120   0.20050
O          O       0.04950   0.95120   0.70050
O          O       0.54950   0.95120   0.20050
O          O       0.54950   0.45120   0.70050
O          O       0.04950   0.54950   0.29880
O          O       0.04950   0.04950   0.79880
O          O       0.54950   0.04950   0.29880
O          O       0.54950   0.54950   0.79880
O          O       0.95120   0.54950   0.20050
O          O       0.95120   0.04950   0.70050
O          O       0.45120   0.04950   0.20050
O          O       0.45120   0.54950   0.70050
O          O       0.23740   0.23740   0.31620
O          O       0.23740   0.73740   0.81620
O          O       0.73740   0.73740   0.31620
O          O       0.73740   0.23740   0.81620
O          O       0.31620   0.23740   0.23740
O          O       0.31620   0.73740   0.73740
O          O       0.81620   0.73740   0.23740
O          O       0.81620   0.23740   0.73740
O          O       0.23740   0.31620   0.23740
O          O       0.23740   0.81620   0.73740
O          O       0.73740   0.81620   0.23740
O          O       0.73740   0.31620   0.73740
O          O       0.76260   0.48740   0.56620
O          O       0.76260   0.98740   0.06620
O          O       0.26260   0.98740   0.56620
O          O       0.26260   0.48740   0.06620
O          O       0.68380   0.48740   0.48740
O          O       0.68380   0.98740   0.98740
O          O       0.18380   0.98740   0.48740
O          O       0.18380   0.48740   0.98740
O          O       0.76260   0.56620   0.48740
O          O       0.76260   0.06620   0.98740
O          O       0.26260   0.06620   0.48740
O          O       0.26260   0.56620   0.98740
O          O       0.48740   0.76260   0.56620
O          O       0.48740   0.26260   0.06620
O          O       0.98740   0.26260   0.56620
O          O       0.98740   0.76260   0.06620
O          O       0.56620   0.76260   0.48740
O          O       0.56620   0.26260   0.98740
O          O       0.06620   0.26260   0.48740
O          O       0.06620   0.76260   0.98740
O          O       0.48740   0.68380   0.48740
O          O       0.48740   0.18380   0.98740
O          O       0.98740   0.18380   0.48740
O          O       0.98740   0.68380   0.98740
O          O       0.01260   0.51260   0.81620
O          O       0.01260   0.01260   0.31620
O          O       0.51260   0.01260   0.81620
O          O       0.51260   0.51260   0.31620
O          O       0.93380   0.51260   0.73740
O          O       0.93380   0.01260   0.23740
O          O       0.43380   0.01260   0.73740
O          O       0.43380   0.51260   0.23740
O          O       0.01260   0.43380   0.73740
O          O       0.01260   0.93380   0.23740
O          O       0.51260   0.93380   0.73740
O          O       0.51260   0.43380   0.23740
O          O       0.76260   0.76260   0.68380
O          O       0.76260   0.26260   0.18380
O          O       0.26260   0.26260   0.68380
O          O       0.26260   0.76260   0.18380
O          O       0.68380   0.76260   0.76260
O          O       0.68380   0.26260   0.26260
O          O       0.18380   0.26260   0.76260
O          O       0.18380   0.76260   0.26260
O          O       0.76260   0.68380   0.76260
O          O       0.76260   0.18380   0.26260
O          O       0.26260   0.18380   0.76260
O          O       0.26260   0.68380   0.26260
O          O       0.23740   0.51260   0.43380
O          O       0.23740   0.01260   0.93380
O          O       0.73740   0.01260   0.43380
O          O       0.73740   0.51260   0.93380
O          O       0.31620   0.51260   0.51260
O          O       0.31620   0.01260   0.01260
O          O       0.81620   0.01260   0.51260
O          O       0.81620   0.51260   0.01260
O          O       0.23740   0.43380   0.51260
O          O       0.23740   0.93380   0.01260
O          O       0.73740   0.93380   0.51260
O          O       0.73740   0.43380   0.01260
O          O       0.51260   0.23740   0.43380
O          O       0.51260   0.73740   0.93380
O          O       0.01260   0.73740   0.43380
O          O       0.01260   0.23740   0.93380
O          O       0.43380   0.23740   0.51260
O          O       0.43380   0.73740   0.01260
O          O       0.93380   0.73740   0.51260
O          O       0.93380   0.23740   0.01260
O          O       0.51260   0.31620   0.51260
O          O       0.51260   0.81620   0.01260
O          O       0.01260   0.81620   0.51260
O          O       0.01260   0.31620   0.01260
O          O       0.98740   0.48740   0.18380
O          O       0.98740   0.98740   0.68380
O          O       0.48740   0.98740   0.18380
O          O       0.48740   0.48740   0.68380
O          O       0.06620   0.48740   0.26260
O          O       0.06620   0.98740   0.76260
O          O       0.56620   0.98740   0.26260
O          O       0.56620   0.48740   0.76260
O          O       0.98740   0.56620   0.26260
O          O       0.98740   0.06620   0.76260
O          O       0.48740   0.06620   0.26260
O          O       0.48740   0.56620   0.76260
O          O       0.43510   0.21430   0.31490
O          O       0.43510   0.71430   0.81490
O          O       0.93510   0.71430   0.31490
O          O       0.93510   0.21430   0.81490
O          O       0.31490   0.43510   0.21430
O          O       0.31490   0.93510   0.71430
O          O       0.81490   0.93510   0.21430
O          O       0.81490   0.43510   0.71430
O          O       0.21430   0.31490   0.43510
O          O       0.21430   0.81490   0.93510
O          O       0.71430   0.81490   0.43510
O          O       0.71430   0.31490   0.93510
O          O       0.56490   0.46430   0.56490
O          O       0.56490   0.96430   0.06490
O          O       0.06490   0.96430   0.56490
O          O       0.06490   0.46430   0.06490
O          O       0.68510   0.68510   0.46430
O          O       0.68510   0.18510   0.96430
O          O       0.18510   0.18510   0.46430
O          O       0.18510   0.68510   0.96430
O          O       0.78570   0.56490   0.68510
O          O       0.78570   0.06490   0.18510
O          O       0.28570   0.06490   0.68510
O          O       0.28570   0.56490   0.18510
O          O       0.68510   0.78570   0.56490
O          O       0.68510   0.28570   0.06490
O          O       0.18510   0.28570   0.56490
O          O       0.18510   0.78570   0.06490
O          O       0.56490   0.56490   0.46430
O          O       0.56490   0.06490   0.96430
O          O       0.06490   0.06490   0.46430
O          O       0.06490   0.56490   0.96430
O          O       0.46430   0.68510   0.68510
O          O       0.46430   0.18510   0.18510
O          O       0.96430   0.18510   0.68510
O          O       0.96430   0.68510   0.18510
O          O       0.81490   0.53570   0.81490
O          O       0.81490   0.03570   0.31490
O          O       0.31490   0.03570   0.81490
O          O       0.31490   0.53570   0.31490
O          O       0.93510   0.31490   0.71430
O          O       0.93510   0.81490   0.21430
O          O       0.43510   0.81490   0.71430
O          O       0.43510   0.31490   0.21430
O          O       0.03570   0.43510   0.93510
O          O       0.03570   0.93510   0.43510
O          O       0.53570   0.93510   0.93510
O          O       0.53570   0.43510   0.43510
O          O       0.21430   0.43510   0.31490
O          O       0.21430   0.93510   0.81490
O          O       0.71430   0.93510   0.31490
O          O       0.71430   0.43510   0.81490
O          O       0.31490   0.21430   0.43510
O          O       0.31490   0.71430   0.93510
O          O       0.81490   0.71430   0.43510
O          O       0.81490   0.21430   0.93510
O          O       0.46430   0.56490   0.56490
O          O       0.46430   0.06490   0.06490
O          O       0.96430   0.06490   0.56490
O          O       0.96430   0.56490   0.06490
O          O       0.56490   0.78570   0.68510
O          O       0.56490   0.28570   0.18510
O          O       0.06490   0.28570   0.68510
O          O       0.06490   0.78570   0.18510
O          O       0.78570   0.68510   0.56490
O          O       0.78570   0.18510   0.06490
O          O       0.28570   0.18510   0.56490
O          O       0.28570   0.68510   0.06490
O          O       0.68510   0.46430   0.68510
O          O       0.68510   0.96430   0.18510
O          O       0.18510   0.96430   0.68510
O          O       0.18510   0.46430   0.18510
O          O       0.53570   0.81490   0.81490
O          O       0.53570   0.31490   0.31490
O          O       0.03570   0.31490   0.81490
O          O       0.03570   0.81490   0.31490
O          O       0.43510   0.03570   0.93510
O          O       0.43510   0.53570   0.43510
O          O       0.93510   0.53570   0.93510
O          O       0.93510   0.03570   0.43510
O          O       0.68510   0.56490   0.78570
O          O       0.68510   0.06490   0.28570
O          O       0.18510   0.06490   0.78570
O          O       0.18510   0.56490   0.28570
O          O       0.31490   0.31490   0.53570
O          O       0.31490   0.81490   0.03570
O          O       0.81490   0.81490   0.53570
O          O       0.81490   0.31490   0.03570
O          O       0.43510   0.43510   0.53570
O          O       0.43510   0.93510   0.03570
O          O       0.93510   0.93510   0.53570
O          O       0.93510   0.43510   0.03570
O          O       0.06490   0.68510   0.28570
O          O       0.06490   0.18510   0.78570
O          O       0.56490   0.18510   0.28570
O          O       0.56490   0.68510   0.78570
O          O       0.42370   0.25300   0.25300
O          O       0.42370   0.75300   0.75300
O          O       0.92370   0.75300   0.25300
O          O       0.92370   0.25300   0.75300
O          O       0.25300   0.42370   0.25300
O          O       0.25300   0.92370   0.75300
O          O       0.75300   0.92370   0.25300
O          O       0.75300   0.42370   0.75300
O          O       0.25300   0.25300   0.42370
O          O       0.25300   0.75300   0.92370
O          O       0.75300   0.75300   0.42370
O          O       0.75300   0.25300   0.92370
O          O       0.57630   0.50300   0.50300
O          O       0.57630   0.00300   0.00300
O          O       0.07630   0.00300   0.50300
O          O       0.07630   0.50300   0.00300
O          O       0.74700   0.67370   0.50300
O          O       0.74700   0.17370   0.00300
O          O       0.24700   0.17370   0.50300
O          O       0.24700   0.67370   0.00300
O          O       0.74700   0.50300   0.67370
O          O       0.74700   0.00300   0.17370
O          O       0.24700   0.00300   0.67370
O          O       0.24700   0.50300   0.17370
O          O       0.67370   0.74700   0.50300
O          O       0.67370   0.24700   0.00300
O          O       0.17370   0.24700   0.50300
O          O       0.17370   0.74700   0.00300
O          O       0.50300   0.57630   0.50300
O          O       0.50300   0.07630   0.00300
O          O       0.00300   0.07630   0.50300
O          O       0.00300   0.57630   0.00300
O          O       0.50300   0.74700   0.67370
O          O       0.50300   0.24700   0.17370
O          O       0.00300   0.24700   0.67370
O          O       0.00300   0.74700   0.17370
O          O       0.82630   0.49700   0.75300
O          O       0.82630   0.99700   0.25300
O          O       0.32630   0.99700   0.75300
O          O       0.32630   0.49700   0.25300
O          O       0.99700   0.32630   0.75300
O          O       0.99700   0.82630   0.25300
O          O       0.49700   0.82630   0.75300
O          O       0.49700   0.32630   0.25300
O          O       0.99700   0.49700   0.92370
O          O       0.99700   0.99700   0.42370
O          O       0.49700   0.99700   0.92370
O          O       0.49700   0.49700   0.42370
O          O       0.57630   0.74700   0.74700
O          O       0.57630   0.24700   0.24700
O          O       0.07630   0.24700   0.74700
O          O       0.07630   0.74700   0.24700
O          O       0.74700   0.57630   0.74700
O          O       0.74700   0.07630   0.24700
O          O       0.24700   0.07630   0.74700
O          O       0.24700   0.57630   0.24700
O          O       0.74700   0.74700   0.57630
O          O       0.74700   0.24700   0.07630
O          O       0.24700   0.24700   0.57630
O          O       0.24700   0.74700   0.07630
O          O       0.42370   0.49700   0.49700
O          O       0.42370   0.99700   0.99700
O          O       0.92370   0.99700   0.49700
O          O       0.92370   0.49700   0.99700
O          O       0.25300   0.32630   0.49700
O          O       0.25300   0.82630   0.99700
O          O       0.75300   0.82630   0.49700
O          O       0.75300   0.32630   0.99700
O          O       0.25300   0.49700   0.32630
O          O       0.25300   0.99700   0.82630
O          O       0.75300   0.99700   0.32630
O          O       0.75300   0.49700   0.82630
O          O       0.32630   0.25300   0.49700
O          O       0.32630   0.75300   0.99700
O          O       0.82630   0.75300   0.49700
O          O       0.82630   0.25300   0.99700
O          O       0.49700   0.42370   0.49700
O          O       0.49700   0.92370   0.99700
O          O       0.99700   0.92370   0.49700
O          O       0.99700   0.42370   0.99700
O          O       0.49700   0.25300   0.32630
O          O       0.49700   0.75300   0.82630
O          O       0.99700   0.75300   0.32630
O          O       0.99700   0.25300   0.82630
O          O       0.17370   0.50300   0.24700
O          O       0.17370   0.00300   0.74700
O          O       0.67370   0.00300   0.24700
O          O       0.67370   0.50300   0.74700
O          O       0.00300   0.67370   0.24700
O          O       0.00300   0.17370   0.74700
O          O       0.50300   0.17370   0.24700
O          O       0.50300   0.67370   0.74700
O          O       0.00300   0.50300   0.07630
O          O       0.00300   0.00300   0.57630
O          O       0.50300   0.00300   0.07630
O          O       0.50300   0.50300   0.57630
O          O       0.42950   0.17960   0.25000
O          O       0.42950   0.67960   0.75000
O          O       0.92950   0.67960   0.25000
O          O       0.92950   0.17960   0.75000
O          O       0.25000   0.42950   0.17960
O          O       0.25000   0.92950   0.67960
O          O       0.75000   0.92950   0.17960
O          O       0.75000   0.42950   0.67960
O          O       0.17960   0.25000   0.42950
O          O       0.17960   0.75000   0.92950
O          O       0.67960   0.75000   0.42950
O          O       0.67960   0.25000   0.92950
O          O       0.57050   0.42960   0.50000
O          O       0.57050   0.92960   0.00000
O          O       0.07050   0.92960   0.50000
O          O       0.07050   0.42960   0.00000
O          O       0.75000   0.67950   0.42960
O          O       0.75000   0.17950   0.92960
O          O       0.25000   0.17950   0.42960
O          O       0.25000   0.67950   0.92960
O          O       0.82040   0.50000   0.67950
O          O       0.82040   0.00000   0.17950
O          O       0.32040   0.00000   0.67950
O          O       0.32040   0.50000   0.17950
O          O       0.67950   0.82040   0.50000
O          O       0.67950   0.32040   0.00000
O          O       0.17950   0.32040   0.50000
O          O       0.17950   0.82040   0.00000
O          O       0.50000   0.57050   0.42960
O          O       0.50000   0.07050   0.92960
O          O       0.00000   0.07050   0.42960
O          O       0.00000   0.57050   0.92960
O          O       0.42960   0.75000   0.67950
O          O       0.42960   0.25000   0.17950
O          O       0.92960   0.25000   0.67950
O          O       0.92960   0.75000   0.17950
O          O       0.82050   0.57040   0.75000
O          O       0.82050   0.07040   0.25000
O          O       0.32050   0.07040   0.75000
O          O       0.32050   0.57040   0.25000
O          O       0.00000   0.32050   0.67960
O          O       0.00000   0.82050   0.17960
O          O       0.50000   0.82050   0.67960
O          O       0.50000   0.32050   0.17960
O          O       0.07040   0.50000   0.92950
O          O       0.07040   0.00000   0.42950
O          O       0.57040   0.00000   0.92950
O          O       0.57040   0.50000   0.42950
O          O       0.17960   0.42950   0.25000
O          O       0.17960   0.92950   0.75000
O          O       0.67960   0.92950   0.25000
O          O       0.67960   0.42950   0.75000
O          O       0.42960   0.57050   0.50000
O          O       0.42960   0.07050   0.00000
O          O       0.92960   0.07050   0.50000
O          O       0.92960   0.57050   0.00000
O          O       0.82040   0.67950   0.50000
O          O       0.82040   0.17950   0.00000
O          O       0.32040   0.17950   0.50000
O          O       0.32040   0.67950   0.00000
O          O       0.57040   0.82050   0.75000
O          O       0.57040   0.32050   0.25000
O          O       0.07040   0.32050   0.75000
O          O       0.07040   0.82050   0.25000
O          O       0.75000   0.57050   0.82040
O          O       0.75000   0.07050   0.32040
O          O       0.25000   0.07050   0.82040
O          O       0.25000   0.57050   0.32040
O          O       0.82040   0.75000   0.57050
O          O       0.82040   0.25000   0.07050
O          O       0.32040   0.25000   0.57050
O          O       0.32040   0.75000   0.07050
O          O       0.25000   0.32050   0.57040
O          O       0.25000   0.82050   0.07040
O          O       0.75000   0.82050   0.57040
O          O       0.75000   0.32050   0.07040
O          O       0.17960   0.50000   0.32050
O          O       0.17960   0.00000   0.82050
O          O       0.67960   0.00000   0.32050
O          O       0.67960   0.50000   0.82050
O          O       0.50000   0.42950   0.57040
O          O       0.50000   0.92950   0.07040
O          O       0.00000   0.92950   0.57040
O          O       0.00000   0.42950   0.07040
O          O       0.57040   0.25000   0.32050
O          O       0.57040   0.75000   0.82050
O          O       0.07040   0.75000   0.32050
O          O       0.07040   0.25000   0.82050
O          O       0.00000   0.67950   0.32040
O          O       0.00000   0.17950   0.82040
O          O       0.50000   0.17950   0.32040
O          O       0.50000   0.67950   0.82040
O          O       0.92960   0.50000   0.07050
O          O       0.92960   0.00000   0.57050
O          O       0.42960   0.00000   0.07050
O          O       0.42960   0.50000   0.57050
