data_crystal

_cell_length_a    38.74977
_cell_length_b    38.74977
_cell_length_c    38.74977
_cell_angle_alpha 109.47122
_cell_angle_beta  109.47122
_cell_angle_gamma 109.47122

_space_group_name_Hall 'P 1'
_space_group_name_H-M_alt 'P 1'

loop_
_symmetry_equiv_pos_as_xyz
 'x,y,z'

loop_
_atom_site_label
_atom_site_type_symbol
_atom_site_fract_x
_atom_site_fract_y
_atom_site_fract_z
O          O       0.44282   0.28808   0.06628
O          O       0.37654   0.93372   0.22180
O          O       0.15474   0.77820   0.71192
O          O       0.37654   0.22180   0.93372
O          O       0.44282   0.06628   0.28808
O          O       0.15474   0.71192   0.77820
O          O       0.22180   0.37654   0.93372
O          O       0.71192   0.15474   0.77820
O          O       0.06628   0.44282   0.28808
O          O       0.28808   0.44282   0.06628
O          O       0.77820   0.15474   0.71192
O          O       0.93372   0.37654   0.22180
O          O       0.77820   0.71192   0.15474
O          O       0.28808   0.06628   0.44282
O          O       0.93372   0.22180   0.37654
O          O       0.71192   0.77820   0.15474
O          O       0.22180   0.93372   0.37654
O          O       0.06628   0.28808   0.44282
O          O       0.55718   0.62346   0.84526
O          O       0.62346   0.84526   0.55718
O          O       0.84526   0.55718   0.62346
O          O       0.62346   0.55718   0.84526
O          O       0.55718   0.84526   0.62346
O          O       0.84526   0.62346   0.55718
O          O       0.55718   0.71192   0.93372
O          O       0.62346   0.06628   0.77820
O          O       0.84526   0.22180   0.28808
O          O       0.62346   0.77820   0.06628
O          O       0.55718   0.93372   0.71192
O          O       0.84526   0.28808   0.22180
O          O       0.77820   0.62346   0.06628
O          O       0.28808   0.84526   0.22180
O          O       0.93372   0.55718   0.71192
O          O       0.71192   0.55718   0.93372
O          O       0.22180   0.84526   0.28808
O          O       0.06628   0.62346   0.77820
O          O       0.22180   0.28808   0.84526
O          O       0.71192   0.93372   0.55718
O          O       0.06628   0.77820   0.62346
O          O       0.28808   0.22180   0.84526
O          O       0.77820   0.06628   0.62346
O          O       0.93372   0.71192   0.55718
O          O       0.44282   0.37654   0.15474
O          O       0.37654   0.15474   0.44282
O          O       0.15474   0.44282   0.37654
O          O       0.37654   0.44282   0.15474
O          O       0.44282   0.15474   0.37654
O          O       0.15474   0.37654   0.44282
O          O       0.40836   0.23836   0.09174
O          O       0.31662   0.90826   0.14662
O          O       0.17000   0.85338   0.76164
O          O       0.31662   0.14662   0.90826
O          O       0.40836   0.09174   0.23836
O          O       0.17000   0.76164   0.85338
O          O       0.14662   0.31662   0.90826
O          O       0.76164   0.17000   0.85338
O          O       0.09174   0.40836   0.23836
O          O       0.23836   0.40836   0.09174
O          O       0.85338   0.17000   0.76164
O          O       0.90826   0.31662   0.14662
O          O       0.85338   0.76164   0.17000
O          O       0.23836   0.09174   0.40836
O          O       0.90826   0.14662   0.31662
O          O       0.76164   0.85338   0.17000
O          O       0.14662   0.90826   0.31662
O          O       0.09174   0.23836   0.40836
O          O       0.59164   0.68338   0.83000
O          O       0.68338   0.83000   0.59164
O          O       0.83000   0.59164   0.68338
O          O       0.68338   0.59164   0.83000
O          O       0.59164   0.83000   0.68338
O          O       0.83000   0.68338   0.59164
O          O       0.59164   0.76164   0.90826
O          O       0.68338   0.09174   0.85338
O          O       0.83000   0.14662   0.23836
O          O       0.68338   0.85338   0.09174
O          O       0.59164   0.90826   0.76164
O          O       0.83000   0.23836   0.14662
O          O       0.85338   0.68338   0.09174
O          O       0.23836   0.83000   0.14662
O          O       0.90826   0.59164   0.76164
O          O       0.76164   0.59164   0.90826
O          O       0.14662   0.83000   0.23836
O          O       0.09174   0.68338   0.85338
O          O       0.14662   0.23836   0.83000
O          O       0.76164   0.90826   0.59164
O          O       0.09174   0.85338   0.68338
O          O       0.23836   0.14662   0.83000
O          O       0.85338   0.09174   0.68338
O          O       0.90826   0.76164   0.59164
O          O       0.40836   0.31662   0.17000
O          O       0.31662   0.17000   0.40836
O          O       0.17000   0.40836   0.31662
O          O       0.31662   0.40836   0.17000
O          O       0.40836   0.17000   0.31662
O          O       0.17000   0.31662   0.40836
O          O       0.33343   0.17862   0.06735
O          O       0.26608   0.93265   0.11127
O          O       0.15481   0.88873   0.82138
O          O       0.26608   0.11127   0.93265
O          O       0.33343   0.06735   0.17862
O          O       0.15481   0.82138   0.88873
O          O       0.11127   0.26608   0.93265
O          O       0.82138   0.15481   0.88873
O          O       0.06735   0.33343   0.17862
O          O       0.17862   0.33343   0.06735
O          O       0.88873   0.15481   0.82138
O          O       0.93265   0.26608   0.11127
O          O       0.88873   0.82138   0.15481
O          O       0.17862   0.06735   0.33343
O          O       0.93265   0.11127   0.26608
O          O       0.82138   0.88873   0.15481
O          O       0.11127   0.93265   0.26608
O          O       0.06735   0.17862   0.33343
O          O       0.66657   0.73392   0.84519
O          O       0.73392   0.84519   0.66657
O          O       0.84519   0.66657   0.73392
O          O       0.73392   0.66657   0.84519
O          O       0.66657   0.84519   0.73392
O          O       0.84519   0.73392   0.66657
O          O       0.66657   0.82138   0.93265
O          O       0.73392   0.06735   0.88873
O          O       0.84519   0.11127   0.17862
O          O       0.73392   0.88873   0.06735
O          O       0.66657   0.93265   0.82138
O          O       0.84519   0.17862   0.11127
O          O       0.88873   0.73392   0.06735
O          O       0.17862   0.84519   0.11127
O          O       0.93265   0.66657   0.82138
O          O       0.82138   0.66657   0.93265
O          O       0.11127   0.84519   0.17862
O          O       0.06735   0.73392   0.88873
O          O       0.11127   0.17862   0.84519
O          O       0.82138   0.93265   0.66657
O          O       0.06735   0.88873   0.73392
O          O       0.17862   0.11127   0.84519
O          O       0.88873   0.06735   0.73392
O          O       0.93265   0.82138   0.66657
O          O       0.33343   0.26608   0.15481
O          O       0.26608   0.15481   0.33343
O          O       0.15481   0.33343   0.26608
O          O       0.26608   0.33343   0.15481
O          O       0.33343   0.15481   0.26608
O          O       0.15481   0.26608   0.33343
O          O       0.25903   0.12721   0.05276
O          O       0.20627   0.94724   0.07445
O          O       0.13182   0.92555   0.87279
O          O       0.20627   0.07445   0.94724
O          O       0.25903   0.05276   0.12721
O          O       0.13182   0.87279   0.92555
O          O       0.07445   0.20627   0.94724
O          O       0.87279   0.13182   0.92555
O          O       0.05276   0.25903   0.12721
O          O       0.12721   0.25903   0.05276
O          O       0.92555   0.13182   0.87279
O          O       0.94724   0.20627   0.07445
O          O       0.92555   0.87279   0.13182
O          O       0.12721   0.05276   0.25903
O          O       0.94724   0.07445   0.20627
O          O       0.87279   0.92555   0.13182
O          O       0.07445   0.94724   0.20627
O          O       0.05276   0.12721   0.25903
O          O       0.74097   0.79373   0.86818
O          O       0.79373   0.86818   0.74097
O          O       0.86818   0.74097   0.79373
O          O       0.79373   0.74097   0.86818
O          O       0.74097   0.86818   0.79373
O          O       0.86818   0.79373   0.74097
O          O       0.74097   0.87279   0.94724
O          O       0.79373   0.05276   0.92555
O          O       0.86818   0.07445   0.12721
O          O       0.79373   0.92555   0.05276
O          O       0.74097   0.94724   0.87279
O          O       0.86818   0.12721   0.07445
O          O       0.92555   0.79373   0.05276
O          O       0.12721   0.86818   0.07445
O          O       0.94724   0.74097   0.87279
O          O       0.87279   0.74097   0.94724
O          O       0.07445   0.86818   0.12721
O          O       0.05276   0.79373   0.92555
O          O       0.07445   0.12721   0.86818
O          O       0.87279   0.94724   0.74097
O          O       0.05276   0.92555   0.79373
O          O       0.12721   0.07445   0.86818
O          O       0.92555   0.05276   0.79373
O          O       0.94724   0.87279   0.74097
O          O       0.25903   0.20627   0.13182
O          O       0.20627   0.13182   0.25903
O          O       0.13182   0.25903   0.20627
O          O       0.20627   0.25903   0.13182
O          O       0.25903   0.13182   0.20627
O          O       0.13182   0.20627   0.25903
O          O       0.70492   0.57212   0.05384
O          O       0.65108   0.94616   0.51828
O          O       0.13280   0.48172   0.42788
O          O       0.65108   0.51828   0.94616
O          O       0.70492   0.05384   0.57212
O          O       0.13280   0.42788   0.48172
O          O       0.51828   0.65108   0.94616
O          O       0.42788   0.13280   0.48172
O          O       0.05384   0.70492   0.57212
O          O       0.57212   0.70492   0.05384
O          O       0.48172   0.13280   0.42788
O          O       0.94616   0.65108   0.51828
O          O       0.48172   0.42788   0.13280
O          O       0.57212   0.05384   0.70492
O          O       0.94616   0.51828   0.65108
O          O       0.42788   0.48172   0.13280
O          O       0.51828   0.94616   0.65108
O          O       0.05384   0.57212   0.70492
O          O       0.29508   0.34892   0.86720
O          O       0.34892   0.86720   0.29508
O          O       0.86720   0.29508   0.34892
O          O       0.34892   0.29508   0.86720
O          O       0.29508   0.86720   0.34892
O          O       0.86720   0.34892   0.29508
O          O       0.29508   0.42788   0.94616
O          O       0.34892   0.05384   0.48172
O          O       0.86720   0.51828   0.57212
O          O       0.34892   0.48172   0.05384
O          O       0.29508   0.94616   0.42788
O          O       0.86720   0.57212   0.51828
O          O       0.48172   0.34892   0.05384
O          O       0.57212   0.86720   0.51828
O          O       0.94616   0.29508   0.42788
O          O       0.42788   0.29508   0.94616
O          O       0.51828   0.86720   0.57212
O          O       0.05384   0.34892   0.48172
O          O       0.51828   0.57212   0.86720
O          O       0.42788   0.94616   0.29508
O          O       0.05384   0.48172   0.34892
O          O       0.57212   0.51828   0.86720
O          O       0.48172   0.05384   0.34892
O          O       0.94616   0.42788   0.29508
O          O       0.70492   0.65108   0.13280
O          O       0.65108   0.13280   0.70492
O          O       0.13280   0.70492   0.65108
O          O       0.65108   0.70492   0.13280
O          O       0.70492   0.13280   0.65108
O          O       0.13280   0.65108   0.70492
O          O       0.66605   0.51097   0.06588
O          O       0.60017   0.93412   0.44509
O          O       0.15508   0.55491   0.48903
O          O       0.60017   0.44509   0.93412
O          O       0.66605   0.06588   0.51097
O          O       0.15508   0.48903   0.55491
O          O       0.44509   0.60017   0.93412
O          O       0.48903   0.15508   0.55491
O          O       0.06588   0.66605   0.51097
O          O       0.51097   0.66605   0.06588
O          O       0.55491   0.15508   0.48903
O          O       0.93412   0.60017   0.44509
O          O       0.55491   0.48903   0.15508
O          O       0.51097   0.06588   0.66605
O          O       0.93412   0.44509   0.60017
O          O       0.48903   0.55491   0.15508
O          O       0.44509   0.93412   0.60017
O          O       0.06588   0.51097   0.66605
O          O       0.33395   0.39983   0.84492
O          O       0.39983   0.84492   0.33395
O          O       0.84492   0.33395   0.39983
O          O       0.39983   0.33395   0.84492
O          O       0.33395   0.84492   0.39983
O          O       0.84492   0.39983   0.33395
O          O       0.33395   0.48903   0.93412
O          O       0.39983   0.06588   0.55491
O          O       0.84492   0.44509   0.51097
O          O       0.39983   0.55491   0.06588
O          O       0.33395   0.93412   0.48903
O          O       0.84492   0.51097   0.44509
O          O       0.55491   0.39983   0.06588
O          O       0.51097   0.84492   0.44509
O          O       0.93412   0.33395   0.48903
O          O       0.48903   0.33395   0.93412
O          O       0.44509   0.84492   0.51097
O          O       0.06588   0.39983   0.55491
O          O       0.44509   0.51097   0.84492
O          O       0.48903   0.93412   0.33395
O          O       0.06588   0.55491   0.39983
O          O       0.51097   0.44509   0.84492
O          O       0.55491   0.06588   0.39983
O          O       0.93412   0.48903   0.33395
O          O       0.66605   0.60017   0.15508
O          O       0.60017   0.15508   0.66605
O          O       0.15508   0.66605   0.60017
O          O       0.60017   0.66605   0.15508
O          O       0.66605   0.15508   0.60017
O          O       0.15508   0.60017   0.66605
O          O       0.29660   0.86781   0.79269
O          O       0.50391   0.20731   0.07512
O          O       0.42879   0.92488   0.13219
O          O       0.50391   0.07512   0.20731
O          O       0.29660   0.79269   0.86781
O          O       0.42879   0.13219   0.92488
O          O       0.07512   0.50391   0.20731
O          O       0.13219   0.42879   0.92488
O          O       0.79269   0.29660   0.86781
O          O       0.86781   0.29660   0.79269
O          O       0.92488   0.42879   0.13219
O          O       0.20731   0.50391   0.07512
O          O       0.92488   0.13219   0.42879
O          O       0.86781   0.79269   0.29660
O          O       0.20731   0.07512   0.50391
O          O       0.13219   0.92488   0.42879
O          O       0.07512   0.20731   0.50391
O          O       0.79269   0.86781   0.29660
O          O       0.70340   0.49609   0.57121
O          O       0.49609   0.57121   0.70340
O          O       0.57121   0.70340   0.49609
O          O       0.49609   0.70340   0.57121
O          O       0.70340   0.57121   0.49609
O          O       0.57121   0.49609   0.70340
O          O       0.70340   0.13219   0.20731
O          O       0.49609   0.79269   0.92488
O          O       0.57121   0.07512   0.86781
O          O       0.49609   0.92488   0.79269
O          O       0.70340   0.20731   0.13219
O          O       0.57121   0.86781   0.07512
O          O       0.92488   0.49609   0.79269
O          O       0.86781   0.57121   0.07512
O          O       0.20731   0.70340   0.13219
O          O       0.13219   0.70340   0.20731
O          O       0.07512   0.57121   0.86781
O          O       0.79269   0.49609   0.92488
O          O       0.07512   0.86781   0.57121
O          O       0.13219   0.20731   0.70340
O          O       0.79269   0.92488   0.49609
O          O       0.86781   0.07512   0.57121
O          O       0.92488   0.79269   0.49609
O          O       0.20731   0.13219   0.70340
O          O       0.29660   0.50391   0.42879
O          O       0.50391   0.42879   0.29660
O          O       0.42879   0.29660   0.50391
O          O       0.50391   0.29660   0.42879
O          O       0.29660   0.42879   0.50391
O          O       0.42879   0.50391   0.29660
O          O       0.48082   0.05228   0.12750
O          O       0.35332   0.87250   0.92478
O          O       0.42854   0.07522   0.94772
O          O       0.35332   0.92478   0.87250
O          O       0.48082   0.12750   0.05228
O          O       0.42854   0.94772   0.07522
O          O       0.92478   0.35332   0.87250
O          O       0.94772   0.42854   0.07522
O          O       0.12750   0.48082   0.05228
O          O       0.05228   0.48082   0.12750
O          O       0.07522   0.42854   0.94772
O          O       0.87250   0.35332   0.92478
O          O       0.07522   0.94772   0.42854
O          O       0.05228   0.12750   0.48082
O          O       0.87250   0.92478   0.35332
O          O       0.94772   0.07522   0.42854
O          O       0.92478   0.87250   0.35332
O          O       0.12750   0.05228   0.48082
O          O       0.51918   0.64668   0.57146
O          O       0.64668   0.57146   0.51918
O          O       0.57146   0.51918   0.64668
O          O       0.64668   0.51918   0.57146
O          O       0.51918   0.57146   0.64668
O          O       0.57146   0.64668   0.51918
O          O       0.51918   0.94772   0.87250
O          O       0.64668   0.12750   0.07522
O          O       0.57146   0.92478   0.05228
O          O       0.64668   0.07522   0.12750
O          O       0.51918   0.87250   0.94772
O          O       0.57146   0.05228   0.92478
O          O       0.07522   0.64668   0.12750
O          O       0.05228   0.57146   0.92478
O          O       0.87250   0.51918   0.94772
O          O       0.94772   0.51918   0.87250
O          O       0.92478   0.57146   0.05228
O          O       0.12750   0.64668   0.07522
O          O       0.92478   0.05228   0.57146
O          O       0.94772   0.87250   0.51918
O          O       0.12750   0.07522   0.64668
O          O       0.05228   0.92478   0.57146
O          O       0.07522   0.12750   0.64668
O          O       0.87250   0.94772   0.51918
O          O       0.48082   0.35332   0.42854
O          O       0.35332   0.42854   0.48082
O          O       0.42854   0.48082   0.35332
O          O       0.35332   0.48082   0.42854
O          O       0.48082   0.42854   0.35332
O          O       0.42854   0.35332   0.48082
O          O       0.42372   0.12707   0.07441
O          O       0.34931   0.92559   0.05266
O          O       0.29665   0.94734   0.87293
O          O       0.34931   0.05266   0.92559
O          O       0.42372   0.07441   0.12707
O          O       0.29665   0.87293   0.94734
O          O       0.05266   0.34931   0.92559
O          O       0.87293   0.29665   0.94734
O          O       0.07441   0.42372   0.12707
O          O       0.12707   0.42372   0.07441
O          O       0.94734   0.29665   0.87293
O          O       0.92559   0.34931   0.05266
O          O       0.94734   0.87293   0.29665
O          O       0.12707   0.07441   0.42372
O          O       0.92559   0.05266   0.34931
O          O       0.87293   0.94734   0.29665
O          O       0.05266   0.92559   0.34931
O          O       0.07441   0.12707   0.42372
O          O       0.57628   0.65069   0.70335
O          O       0.65069   0.70335   0.57628
O          O       0.70335   0.57628   0.65069
O          O       0.65069   0.57628   0.70335
O          O       0.57628   0.70335   0.65069
O          O       0.70335   0.65069   0.57628
O          O       0.57628   0.87293   0.92559
O          O       0.65069   0.07441   0.94734
O          O       0.70335   0.05266   0.12707
O          O       0.65069   0.94734   0.07441
O          O       0.57628   0.92559   0.87293
O          O       0.70335   0.12707   0.05266
O          O       0.94734   0.65069   0.07441
O          O       0.12707   0.70335   0.05266
O          O       0.92559   0.57628   0.87293
O          O       0.87293   0.57628   0.92559
O          O       0.05266   0.70335   0.12707
O          O       0.07441   0.65069   0.94734
O          O       0.05266   0.12707   0.70335
O          O       0.87293   0.92559   0.57628
O          O       0.07441   0.94734   0.65069
O          O       0.12707   0.05266   0.70335
O          O       0.94734   0.07441   0.65069
O          O       0.92559   0.87293   0.57628
O          O       0.42372   0.34931   0.29665
O          O       0.34931   0.29665   0.42372
O          O       0.29665   0.42372   0.34931
O          O       0.34931   0.42372   0.29665
O          O       0.42372   0.29665   0.34931
O          O       0.29665   0.34931   0.42372
O          O       0.34946   0.07496   0.86834
O          O       0.48112   0.13166   0.20662
O          O       0.27450   0.79338   0.92504
O          O       0.48112   0.20662   0.13166
O          O       0.34946   0.86834   0.07496
O          O       0.27450   0.92504   0.79338
O          O       0.20662   0.48112   0.13166
O          O       0.92504   0.27450   0.79338
O          O       0.86834   0.34946   0.07496
O          O       0.07496   0.34946   0.86834
O          O       0.79338   0.27450   0.92504
O          O       0.13166   0.48112   0.20662
O          O       0.79338   0.92504   0.27450
O          O       0.07496   0.86834   0.34946
O          O       0.13166   0.20662   0.48112
O          O       0.92504   0.79338   0.27450
O          O       0.20662   0.13166   0.48112
O          O       0.86834   0.07496   0.34946
O          O       0.65054   0.51888   0.72550
O          O       0.51888   0.72550   0.65054
O          O       0.72550   0.65054   0.51888
O          O       0.51888   0.65054   0.72550
O          O       0.65054   0.72550   0.51888
O          O       0.72550   0.51888   0.65054
O          O       0.65054   0.92504   0.13166
O          O       0.51888   0.86834   0.79338
O          O       0.72550   0.20662   0.07496
O          O       0.51888   0.79338   0.86834
O          O       0.65054   0.13166   0.92504
O          O       0.72550   0.07496   0.20662
O          O       0.79338   0.51888   0.86834
O          O       0.07496   0.72550   0.20662
O          O       0.13166   0.65054   0.92504
O          O       0.92504   0.65054   0.13166
O          O       0.20662   0.72550   0.07496
O          O       0.86834   0.51888   0.79338
O          O       0.20662   0.07496   0.72550
O          O       0.92504   0.13166   0.65054
O          O       0.86834   0.79338   0.51888
O          O       0.07496   0.20662   0.72550
O          O       0.79338   0.86834   0.51888
O          O       0.13166   0.92504   0.65054
O          O       0.34946   0.48112   0.27450
O          O       0.48112   0.27450   0.34946
O          O       0.27450   0.34946   0.48112
O          O       0.48112   0.34946   0.27450
O          O       0.34946   0.27450   0.48112
O          O       0.27450   0.48112   0.34946
O          O       0.88828   0.15439   0.37639
O          O       0.51189   0.62361   0.77800
O          O       0.73389   0.22200   0.84561
O          O       0.51189   0.77800   0.62361
O          O       0.88828   0.37639   0.15439
O          O       0.73389   0.84561   0.22200
O          O       0.77800   0.51189   0.62361
O          O       0.84561   0.73389   0.22200
O          O       0.37639   0.88828   0.15439
O          O       0.15439   0.88828   0.37639
O          O       0.22200   0.73389   0.84561
O          O       0.62361   0.51189   0.77800
O          O       0.22200   0.84561   0.73389
O          O       0.15439   0.37639   0.88828
O          O       0.62361   0.77800   0.51189
O          O       0.84561   0.22200   0.73389
O          O       0.77800   0.62361   0.51189
O          O       0.37639   0.15439   0.88828
O          O       0.11172   0.48811   0.26611
O          O       0.48811   0.26611   0.11172
O          O       0.26611   0.11172   0.48811
O          O       0.48811   0.11172   0.26611
O          O       0.11172   0.26611   0.48811
O          O       0.26611   0.48811   0.11172
O          O       0.11172   0.84561   0.62361
O          O       0.48811   0.37639   0.22200
O          O       0.26611   0.77800   0.15439
O          O       0.48811   0.22200   0.37639
O          O       0.11172   0.62361   0.84561
O          O       0.26611   0.15439   0.77800
O          O       0.22200   0.48811   0.37639
O          O       0.15439   0.26611   0.77800
O          O       0.62361   0.11172   0.84561
O          O       0.84561   0.11172   0.62361
O          O       0.77800   0.26611   0.15439
O          O       0.37639   0.48811   0.22200
O          O       0.77800   0.15439   0.26611
O          O       0.84561   0.62361   0.11172
O          O       0.37639   0.22200   0.48811
O          O       0.15439   0.77800   0.26611
O          O       0.22200   0.37639   0.48811
O          O       0.62361   0.84561   0.11172
O          O       0.88828   0.51189   0.73389
O          O       0.51189   0.73389   0.88828
O          O       0.73389   0.88828   0.51189
O          O       0.51189   0.88828   0.73389
O          O       0.88828   0.73389   0.51189
O          O       0.73389   0.51189   0.88828
O          O       0.88812   0.06704   0.28960
O          O       0.59852   0.71040   0.77744
O          O       0.82108   0.22256   0.93296
O          O       0.59852   0.77744   0.71040
O          O       0.88812   0.28960   0.06704
O          O       0.82108   0.93296   0.22256
O          O       0.77744   0.59852   0.71040
O          O       0.93296   0.82108   0.22256
O          O       0.28960   0.88812   0.06704
O          O       0.06704   0.88812   0.28960
O          O       0.22256   0.82108   0.93296
O          O       0.71040   0.59852   0.77744
O          O       0.22256   0.93296   0.82108
O          O       0.06704   0.28960   0.88812
O          O       0.71040   0.77744   0.59852
O          O       0.93296   0.22256   0.82108
O          O       0.77744   0.71040   0.59852
O          O       0.28960   0.06704   0.88812
O          O       0.11188   0.40148   0.17892
O          O       0.40148   0.17892   0.11188
O          O       0.17892   0.11188   0.40148
O          O       0.40148   0.11188   0.17892
O          O       0.11188   0.17892   0.40148
O          O       0.17892   0.40148   0.11188
O          O       0.11188   0.93296   0.71040
O          O       0.40148   0.28960   0.22256
O          O       0.17892   0.77744   0.06704
O          O       0.40148   0.22256   0.28960
O          O       0.11188   0.71040   0.93296
O          O       0.17892   0.06704   0.77744
O          O       0.22256   0.40148   0.28960
O          O       0.06704   0.17892   0.77744
O          O       0.71040   0.11188   0.93296
O          O       0.93296   0.11188   0.71040
O          O       0.77744   0.17892   0.06704
O          O       0.28960   0.40148   0.22256
O          O       0.77744   0.06704   0.17892
O          O       0.93296   0.71040   0.11188
O          O       0.28960   0.22256   0.40148
O          O       0.06704   0.77744   0.17892
O          O       0.22256   0.28960   0.40148
O          O       0.71040   0.93296   0.11188
O          O       0.88812   0.59852   0.82108
O          O       0.59852   0.82108   0.88812
O          O       0.82108   0.88812   0.59852
O          O       0.59852   0.88812   0.82108
O          O       0.88812   0.82108   0.59852
O          O       0.82108   0.59852   0.88812
O          O       0.70961   0.26577   0.11050
O          O       0.59911   0.88950   0.15527
O          O       0.44384   0.84473   0.73423
O          O       0.59911   0.15527   0.88950
O          O       0.70961   0.11050   0.26577
O          O       0.44384   0.73423   0.84473
O          O       0.15527   0.59911   0.88950
O          O       0.73423   0.44384   0.84473
O          O       0.11050   0.70961   0.26577
O          O       0.26577   0.70961   0.11050
O          O       0.84473   0.44384   0.73423
O          O       0.88950   0.59911   0.15527
O          O       0.84473   0.73423   0.44384
O          O       0.26577   0.11050   0.70961
O          O       0.88950   0.15527   0.59911
O          O       0.73423   0.84473   0.44384
O          O       0.15527   0.88950   0.59911
O          O       0.11050   0.26577   0.70961
O          O       0.29039   0.40089   0.55616
O          O       0.40089   0.55616   0.29039
O          O       0.55616   0.29039   0.40089
O          O       0.40089   0.29039   0.55616
O          O       0.29039   0.55616   0.40089
O          O       0.55616   0.40089   0.29039
O          O       0.29039   0.73423   0.88950
O          O       0.40089   0.11050   0.84473
O          O       0.55616   0.15527   0.26577
O          O       0.40089   0.84473   0.11050
O          O       0.29039   0.88950   0.73423
O          O       0.55616   0.26577   0.15527
O          O       0.84473   0.40089   0.11050
O          O       0.26577   0.55616   0.15527
O          O       0.88950   0.29039   0.73423
O          O       0.73423   0.29039   0.88950
O          O       0.15527   0.55616   0.26577
O          O       0.11050   0.40089   0.84473
O          O       0.15527   0.26577   0.55616
O          O       0.73423   0.88950   0.29039
O          O       0.11050   0.84473   0.40089
O          O       0.26577   0.15527   0.55616
O          O       0.84473   0.11050   0.40089
O          O       0.88950   0.73423   0.29039
O          O       0.70961   0.59911   0.44384
O          O       0.59911   0.44384   0.70961
O          O       0.44384   0.70961   0.59911
O          O       0.59911   0.70961   0.44384
O          O       0.70961   0.44384   0.59911
O          O       0.44384   0.59911   0.70961
O          O       0.77859   0.48698   0.37553
O          O       0.40306   0.62447   0.11145
O          O       0.29161   0.88855   0.51302
O          O       0.40306   0.11145   0.62447
O          O       0.77859   0.37553   0.48698
O          O       0.29161   0.51302   0.88855
O          O       0.11145   0.40306   0.62447
O          O       0.51302   0.29161   0.88855
O          O       0.37553   0.77859   0.48698
O          O       0.48698   0.77859   0.37553
O          O       0.88855   0.29161   0.51302
O          O       0.62447   0.40306   0.11145
O          O       0.88855   0.51302   0.29161
O          O       0.48698   0.37553   0.77859
O          O       0.62447   0.11145   0.40306
O          O       0.51302   0.88855   0.29161
O          O       0.11145   0.62447   0.40306
O          O       0.37553   0.48698   0.77859
O          O       0.22141   0.59694   0.70839
O          O       0.59694   0.70839   0.22141
O          O       0.70839   0.22141   0.59694
O          O       0.59694   0.22141   0.70839
O          O       0.22141   0.70839   0.59694
O          O       0.70839   0.59694   0.22141
O          O       0.22141   0.51302   0.62447
O          O       0.59694   0.37553   0.88855
O          O       0.70839   0.11145   0.48698
O          O       0.59694   0.88855   0.37553
O          O       0.22141   0.62447   0.51302
O          O       0.70839   0.48698   0.11145
O          O       0.88855   0.59694   0.37553
O          O       0.48698   0.70839   0.11145
O          O       0.62447   0.22141   0.51302
O          O       0.51302   0.22141   0.62447
O          O       0.11145   0.70839   0.48698
O          O       0.37553   0.59694   0.88855
O          O       0.11145   0.48698   0.70839
O          O       0.51302   0.62447   0.22141
O          O       0.37553   0.88855   0.59694
O          O       0.48698   0.11145   0.70839
O          O       0.88855   0.37553   0.59694
O          O       0.62447   0.51302   0.22141
O          O       0.77859   0.40306   0.29161
O          O       0.40306   0.29161   0.77859
O          O       0.29161   0.77859   0.40306
O          O       0.40306   0.77859   0.29161
O          O       0.77859   0.29161   0.40306
O          O       0.29161   0.40306   0.77859
O          O       0.71077   0.33434   0.48875
O          O       0.22202   0.51125   0.84559
O          O       0.37643   0.15441   0.66566
O          O       0.22202   0.84559   0.51125
O          O       0.71077   0.48875   0.33434
O          O       0.37643   0.66566   0.15441
O          O       0.84559   0.22202   0.51125
O          O       0.66566   0.37643   0.15441
O          O       0.48875   0.71077   0.33434
O          O       0.33434   0.71077   0.48875
O          O       0.15441   0.37643   0.66566
O          O       0.51125   0.22202   0.84559
O          O       0.15441   0.66566   0.37643
O          O       0.33434   0.48875   0.71077
O          O       0.51125   0.84559   0.22202
O          O       0.66566   0.15441   0.37643
O          O       0.84559   0.51125   0.22202
O          O       0.48875   0.33434   0.71077
O          O       0.28923   0.77798   0.62357
O          O       0.77798   0.62357   0.28923
O          O       0.62357   0.28923   0.77798
O          O       0.77798   0.28923   0.62357
O          O       0.28923   0.62357   0.77798
O          O       0.62357   0.77798   0.28923
O          O       0.28923   0.66566   0.51125
O          O       0.77798   0.48875   0.15441
O          O       0.62357   0.84559   0.33434
O          O       0.77798   0.15441   0.48875
O          O       0.28923   0.51125   0.66566
O          O       0.62357   0.33434   0.84559
O          O       0.15441   0.77798   0.48875
O          O       0.33434   0.62357   0.84559
O          O       0.51125   0.28923   0.66566
O          O       0.66566   0.28923   0.51125
O          O       0.84559   0.62357   0.33434
O          O       0.48875   0.77798   0.15441
O          O       0.84559   0.33434   0.62357
O          O       0.66566   0.51125   0.28923
O          O       0.48875   0.15441   0.77798
O          O       0.33434   0.84559   0.62357
O          O       0.15441   0.48875   0.77798
O          O       0.51125   0.66566   0.28923
O          O       0.71077   0.22202   0.37643
O          O       0.22202   0.37643   0.71077
O          O       0.37643   0.71077   0.22202
O          O       0.22202   0.71077   0.37643
O          O       0.71077   0.37643   0.22202
O          O       0.37643   0.22202   0.71077
O          O       0.44462   0.93246   0.82100
O          O       0.62362   0.17900   0.11146
O          O       0.51216   0.88854   0.06754
O          O       0.62362   0.11146   0.17900
O          O       0.44462   0.82100   0.93246
O          O       0.51216   0.06754   0.88854
O          O       0.11146   0.62362   0.17900
O          O       0.06754   0.51216   0.88854
O          O       0.82100   0.44462   0.93246
O          O       0.93246   0.44462   0.82100
O          O       0.88854   0.51216   0.06754
O          O       0.17900   0.62362   0.11146
O          O       0.88854   0.06754   0.51216
O          O       0.93246   0.82100   0.44462
O          O       0.17900   0.11146   0.62362
O          O       0.06754   0.88854   0.51216
O          O       0.11146   0.17900   0.62362
O          O       0.82100   0.93246   0.44462
O          O       0.55538   0.37638   0.48784
O          O       0.37638   0.48784   0.55538
O          O       0.48784   0.55538   0.37638
O          O       0.37638   0.55538   0.48784
O          O       0.55538   0.48784   0.37638
O          O       0.48784   0.37638   0.55538
O          O       0.55538   0.06754   0.17900
O          O       0.37638   0.82100   0.88854
O          O       0.48784   0.11146   0.93246
O          O       0.37638   0.88854   0.82100
O          O       0.55538   0.17900   0.06754
O          O       0.48784   0.93246   0.11146
O          O       0.88854   0.37638   0.82100
O          O       0.93246   0.48784   0.11146
O          O       0.17900   0.55538   0.06754
O          O       0.06754   0.55538   0.17900
O          O       0.11146   0.48784   0.93246
O          O       0.82100   0.37638   0.88854
O          O       0.11146   0.93246   0.48784
O          O       0.06754   0.17900   0.55538
O          O       0.82100   0.88854   0.37638
O          O       0.93246   0.11146   0.48784
O          O       0.88854   0.82100   0.37638
O          O       0.17900   0.06754   0.55538
O          O       0.44462   0.62362   0.51216
O          O       0.62362   0.51216   0.44462
O          O       0.51216   0.44462   0.62362
O          O       0.62362   0.44462   0.51216
O          O       0.44462   0.51216   0.62362
O          O       0.51216   0.62362   0.44462
O          O       0.85249   0.39215   0.76216
O          O       0.09033   0.23784   0.62999
O          O       0.46034   0.37001   0.60785
O          O       0.09033   0.62999   0.23784
O          O       0.85249   0.76216   0.39215
O          O       0.46034   0.60785   0.37001
O          O       0.62999   0.09033   0.23784
O          O       0.60785   0.46034   0.37001
O          O       0.76216   0.85249   0.39215
O          O       0.39215   0.85249   0.76216
O          O       0.37001   0.46034   0.60785
O          O       0.23784   0.09033   0.62999
O          O       0.37001   0.60785   0.46034
O          O       0.39215   0.76216   0.85249
O          O       0.23784   0.62999   0.09033
O          O       0.60785   0.37001   0.46034
O          O       0.62999   0.23784   0.09033
O          O       0.76216   0.39215   0.85249
O          O       0.14751   0.90967   0.53966
O          O       0.90967   0.53966   0.14751
O          O       0.53966   0.14751   0.90967
O          O       0.90967   0.14751   0.53966
O          O       0.14751   0.53966   0.90967
O          O       0.53966   0.90967   0.14751
O          O       0.14751   0.60785   0.23784
O          O       0.90967   0.76216   0.37001
O          O       0.53966   0.62999   0.39215
O          O       0.90967   0.37001   0.76216
O          O       0.14751   0.23784   0.60785
O          O       0.53966   0.39215   0.62999
O          O       0.37001   0.90967   0.76216
O          O       0.39215   0.53966   0.62999
O          O       0.23784   0.14751   0.60785
O          O       0.60785   0.14751   0.23784
O          O       0.62999   0.53966   0.39215
O          O       0.76216   0.90967   0.37001
O          O       0.62999   0.39215   0.53966
O          O       0.60785   0.23784   0.14751
O          O       0.76216   0.37001   0.90967
O          O       0.39215   0.62999   0.53966
O          O       0.37001   0.76216   0.90967
O          O       0.23784   0.60785   0.14751
O          O       0.85249   0.09033   0.46034
O          O       0.09033   0.46034   0.85249
O          O       0.46034   0.85249   0.09033
O          O       0.09033   0.85249   0.46034
O          O       0.85249   0.46034   0.09033
O          O       0.46034   0.09033   0.85249
O          O       0.68248   0.36929   0.82933
O          O       0.85315   0.17067   0.53996
O          O       0.31319   0.46004   0.63071
O          O       0.85315   0.53996   0.17067
O          O       0.68248   0.82933   0.36929
O          O       0.31319   0.63071   0.46004
O          O       0.53996   0.85315   0.17067
O          O       0.63071   0.31319   0.46004
O          O       0.82933   0.68248   0.36929
O          O       0.36929   0.68248   0.82933
O          O       0.46004   0.31319   0.63071
O          O       0.17067   0.85315   0.53996
O          O       0.46004   0.63071   0.31319
O          O       0.36929   0.82933   0.68248
O          O       0.17067   0.53996   0.85315
O          O       0.63071   0.46004   0.31319
O          O       0.53996   0.17067   0.85315
O          O       0.82933   0.36929   0.68248
O          O       0.31752   0.14685   0.68681
O          O       0.14685   0.68681   0.31752
O          O       0.68681   0.31752   0.14685
O          O       0.14685   0.31752   0.68681
O          O       0.31752   0.68681   0.14685
O          O       0.68681   0.14685   0.31752
O          O       0.31752   0.63071   0.17067
O          O       0.14685   0.82933   0.46004
O          O       0.68681   0.53996   0.36929
O          O       0.14685   0.46004   0.82933
O          O       0.31752   0.17067   0.63071
O          O       0.68681   0.36929   0.53996
O          O       0.46004   0.14685   0.82933
O          O       0.36929   0.68681   0.53996
O          O       0.17067   0.31752   0.63071
O          O       0.63071   0.31752   0.17067
O          O       0.53996   0.68681   0.36929
O          O       0.82933   0.14685   0.46004
O          O       0.53996   0.36929   0.68681
O          O       0.63071   0.17067   0.31752
O          O       0.82933   0.46004   0.14685
O          O       0.36929   0.53996   0.68681
O          O       0.46004   0.82933   0.14685
O          O       0.17067   0.63071   0.31752
O          O       0.68248   0.85315   0.31319
O          O       0.85315   0.31319   0.68248
O          O       0.31319   0.68248   0.85315
O          O       0.85315   0.68248   0.31319
O          O       0.68248   0.31319   0.85315
O          O       0.31319   0.85315   0.68248
O          O       0.42873   0.70387   0.35346
O          O       0.07527   0.64654   0.35041
O          O       0.72486   0.64959   0.29613
O          O       0.07527   0.35041   0.64654
O          O       0.42873   0.35346   0.70387
O          O       0.72486   0.29613   0.64959
O          O       0.35041   0.07527   0.64654
O          O       0.29613   0.72486   0.64959
O          O       0.35346   0.42873   0.70387
O          O       0.70387   0.42873   0.35346
O          O       0.64959   0.72486   0.29613
O          O       0.64654   0.07527   0.35041
O          O       0.64959   0.29613   0.72486
O          O       0.70387   0.35346   0.42873
O          O       0.64654   0.35041   0.07527
O          O       0.29613   0.64959   0.72486
O          O       0.35041   0.64654   0.07527
O          O       0.35346   0.70387   0.42873
O          O       0.57127   0.92473   0.27514
O          O       0.92473   0.27514   0.57127
O          O       0.27514   0.57127   0.92473
O          O       0.92473   0.57127   0.27514
O          O       0.57127   0.27514   0.92473
O          O       0.27514   0.92473   0.57127
O          O       0.57127   0.29613   0.64654
O          O       0.92473   0.35346   0.64959
O          O       0.27514   0.35041   0.70387
O          O       0.92473   0.64959   0.35346
O          O       0.57127   0.64654   0.29613
O          O       0.27514   0.70387   0.35041
O          O       0.64959   0.92473   0.35346
O          O       0.70387   0.27514   0.35041
O          O       0.64654   0.57127   0.29613
O          O       0.29613   0.57127   0.64654
O          O       0.35041   0.27514   0.70387
O          O       0.35346   0.92473   0.64959
O          O       0.35041   0.70387   0.27514
O          O       0.29613   0.64654   0.57127
O          O       0.35346   0.64959   0.92473
O          O       0.70387   0.35041   0.27514
O          O       0.64959   0.35346   0.92473
O          O       0.64654   0.29613   0.57127
O          O       0.42873   0.07527   0.72486
O          O       0.07527   0.72486   0.42873
O          O       0.72486   0.42873   0.07527
O          O       0.07527   0.42873   0.72486
O          O       0.42873   0.72486   0.07527
O          O       0.72486   0.07527   0.42873
O          O       0.62466   0.28961   0.22283
O          O       0.40183   0.77717   0.06678
O          O       0.33505   0.93322   0.71039
O          O       0.40183   0.06678   0.77717
O          O       0.62466   0.22283   0.28961
O          O       0.33505   0.71039   0.93322
O          O       0.06678   0.40183   0.77717
O          O       0.71039   0.33505   0.93322
O          O       0.22283   0.62466   0.28961
O          O       0.28961   0.62466   0.22283
O          O       0.93322   0.33505   0.71039
O          O       0.77717   0.40183   0.06678
O          O       0.93322   0.71039   0.33505
O          O       0.28961   0.22283   0.62466
O          O       0.77717   0.06678   0.40183
O          O       0.71039   0.93322   0.33505
O          O       0.06678   0.77717   0.40183
O          O       0.22283   0.28961   0.62466
O          O       0.37534   0.59817   0.66495
O          O       0.59817   0.66495   0.37534
O          O       0.66495   0.37534   0.59817
O          O       0.59817   0.37534   0.66495
O          O       0.37534   0.66495   0.59817
O          O       0.66495   0.59817   0.37534
O          O       0.37534   0.71039   0.77717
O          O       0.59817   0.22283   0.93322
O          O       0.66495   0.06678   0.28961
O          O       0.59817   0.93322   0.22283
O          O       0.37534   0.77717   0.71039
O          O       0.66495   0.28961   0.06678
O          O       0.93322   0.59817   0.22283
O          O       0.28961   0.66495   0.06678
O          O       0.77717   0.37534   0.71039
O          O       0.71039   0.37534   0.77717
O          O       0.06678   0.66495   0.28961
O          O       0.22283   0.59817   0.93322
O          O       0.06678   0.28961   0.66495
O          O       0.71039   0.77717   0.37534
O          O       0.22283   0.93322   0.59817
O          O       0.28961   0.06678   0.66495
O          O       0.93322   0.22283   0.59817
O          O       0.77717   0.71039   0.37534
O          O       0.62466   0.40183   0.33505
O          O       0.40183   0.33505   0.62466
O          O       0.33505   0.62466   0.40183
O          O       0.40183   0.62466   0.33505
O          O       0.62466   0.33505   0.40183
O          O       0.33505   0.40183   0.62466
O          O       0.17174   0.31847   0.85327
O          O       0.31847   0.14673   0.46520
O          O       0.85327   0.53480   0.68153
O          O       0.31847   0.46520   0.14673
O          O       0.17174   0.85327   0.31847
O          O       0.85327   0.68153   0.53480
O          O       0.46520   0.31847   0.14673
O          O       0.68153   0.85327   0.53480
O          O       0.85327   0.17174   0.31847
O          O       0.31847   0.17174   0.85327
O          O       0.53480   0.85327   0.68153
O          O       0.14673   0.31847   0.46520
O          O       0.53480   0.68153   0.85327
O          O       0.31847   0.85327   0.17174
O          O       0.14673   0.46520   0.31847
O          O       0.68153   0.53480   0.85327
O          O       0.46520   0.14673   0.31847
O          O       0.85327   0.31847   0.17174
O          O       0.82826   0.68153   0.14673
O          O       0.68153   0.14673   0.82826
O          O       0.14673   0.82826   0.68153
O          O       0.68153   0.82826   0.14673
O          O       0.82826   0.14673   0.68153
O          O       0.14673   0.68153   0.82826
O          O       0.72473   0.42920   0.29553
O          O       0.42920   0.70447   0.13367
O          O       0.29553   0.86633   0.57080
O          O       0.42920   0.13367   0.70447
O          O       0.72473   0.29553   0.42920
O          O       0.29553   0.57080   0.86633
O          O       0.13367   0.42920   0.70447
O          O       0.57080   0.29553   0.86633
O          O       0.29553   0.72473   0.42920
O          O       0.42920   0.72473   0.29553
O          O       0.86633   0.29553   0.57080
O          O       0.70447   0.42920   0.13367
O          O       0.86633   0.57080   0.29553
O          O       0.42920   0.29553   0.72473
O          O       0.70447   0.13367   0.42920
O          O       0.57080   0.86633   0.29553
O          O       0.13367   0.70447   0.42920
O          O       0.29553   0.42920   0.72473
O          O       0.27527   0.57080   0.70447
O          O       0.57080   0.70447   0.27527
O          O       0.70447   0.27527   0.57080
O          O       0.57080   0.27527   0.70447
O          O       0.27527   0.70447   0.57080
O          O       0.70447   0.57080   0.27527
O          O       0.64744   0.57164   0.07580
O          O       0.57164   0.92420   0.49584
O          O       0.07580   0.50416   0.42836
O          O       0.57164   0.49584   0.92420
O          O       0.64744   0.07580   0.57164
O          O       0.07580   0.42836   0.50416
O          O       0.49584   0.57164   0.92420
O          O       0.42836   0.07580   0.50416
O          O       0.07580   0.64744   0.57164
O          O       0.57164   0.64744   0.07580
O          O       0.50416   0.07580   0.42836
O          O       0.92420   0.57164   0.49584
O          O       0.50416   0.42836   0.07580
O          O       0.57164   0.07580   0.64744
O          O       0.92420   0.49584   0.57164
O          O       0.42836   0.50416   0.07580
O          O       0.49584   0.92420   0.57164
O          O       0.07580   0.57164   0.64744
O          O       0.35256   0.42836   0.92420
O          O       0.42836   0.92420   0.35256
O          O       0.92420   0.35256   0.42836
O          O       0.42836   0.35256   0.92420
O          O       0.35256   0.92420   0.42836
O          O       0.92420   0.42836   0.35256
O          O       0.68657   0.54076   0.14581
O          O       0.54076   0.85419   0.39495
O          O       0.14581   0.60505   0.45924
O          O       0.54076   0.39495   0.85419
O          O       0.68657   0.14581   0.54076
O          O       0.14581   0.45924   0.60505
O          O       0.39495   0.54076   0.85419
O          O       0.45924   0.14581   0.60505
O          O       0.14581   0.68657   0.54076
O          O       0.54076   0.68657   0.14581
O          O       0.60505   0.14581   0.45924
O          O       0.85419   0.54076   0.39495
O          O       0.60505   0.45924   0.14581
O          O       0.54076   0.14581   0.68657
O          O       0.85419   0.39495   0.54076
O          O       0.45924   0.60505   0.14581
O          O       0.39495   0.85419   0.54076
O          O       0.14581   0.54076   0.68657
O          O       0.31343   0.45924   0.85419
O          O       0.45924   0.85419   0.31343
O          O       0.85419   0.31343   0.45924
O          O       0.45924   0.31343   0.85419
O          O       0.31343   0.85419   0.45924
O          O       0.85419   0.45924   0.31343
O          O       0.42406   0.34859   0.07547
O          O       0.34859   0.92453   0.27312
O          O       0.07547   0.72688   0.65141
O          O       0.34859   0.27312   0.92453
O          O       0.42406   0.07547   0.34859
O          O       0.07547   0.65141   0.72688
O          O       0.27312   0.34859   0.92453
O          O       0.65141   0.07547   0.72688
O          O       0.07547   0.42406   0.34859
O          O       0.34859   0.42406   0.07547
O          O       0.72688   0.07547   0.65141
O          O       0.92453   0.34859   0.27312
O          O       0.72688   0.65141   0.07547
O          O       0.34859   0.07547   0.42406
O          O       0.92453   0.27312   0.34859
O          O       0.65141   0.72688   0.07547
O          O       0.27312   0.92453   0.34859
O          O       0.07547   0.34859   0.42406
O          O       0.57594   0.65141   0.92453
O          O       0.65141   0.92453   0.57594
O          O       0.92453   0.57594   0.65141
O          O       0.65141   0.57594   0.92453
O          O       0.57594   0.92453   0.65141
O          O       0.92453   0.65141   0.57594
O          O       0.38449   0.23689   0.14760
O          O       0.23689   0.85240   0.08929
O          O       0.14760   0.91071   0.76311
O          O       0.23689   0.08929   0.85240
O          O       0.38449   0.14760   0.23689
O          O       0.14760   0.76311   0.91071
O          O       0.08929   0.23689   0.85240
O          O       0.76311   0.14760   0.91071
O          O       0.14760   0.38449   0.23689
O          O       0.23689   0.38449   0.14760
O          O       0.91071   0.14760   0.76311
O          O       0.85240   0.23689   0.08929
O          O       0.91071   0.76311   0.14760
O          O       0.23689   0.14760   0.38449
O          O       0.85240   0.08929   0.23689
O          O       0.76311   0.91071   0.14760
O          O       0.08929   0.85240   0.23689
O          O       0.14760   0.23689   0.38449
O          O       0.61551   0.76311   0.85240
O          O       0.76311   0.85240   0.61551
O          O       0.85240   0.61551   0.76311
O          O       0.76311   0.61551   0.85240
O          O       0.61551   0.85240   0.76311
O          O       0.85240   0.76311   0.61551
O          O       0.28182   0.20674   0.07508
O          O       0.20674   0.92492   0.13166
O          O       0.07508   0.86834   0.79326
O          O       0.20674   0.13166   0.92492
O          O       0.28182   0.07508   0.20674
O          O       0.07508   0.79326   0.86834
O          O       0.13166   0.20674   0.92492
O          O       0.79326   0.07508   0.86834
O          O       0.07508   0.28182   0.20674
O          O       0.20674   0.28182   0.07508
O          O       0.86834   0.07508   0.79326
O          O       0.92492   0.20674   0.13166
O          O       0.86834   0.79326   0.07508
O          O       0.20674   0.07508   0.28182
O          O       0.92492   0.13166   0.20674
O          O       0.79326   0.86834   0.07508
O          O       0.13166   0.92492   0.20674
O          O       0.07508   0.20674   0.28182
O          O       0.71818   0.79326   0.92492
O          O       0.79326   0.92492   0.71818
O          O       0.92492   0.71818   0.79326
O          O       0.79326   0.71818   0.92492
O          O       0.71818   0.92492   0.79326
O          O       0.92492   0.79326   0.71818
O          O       0.20182   0.12679   0.07503
O          O       0.12679   0.92497   0.05176
O          O       0.07503   0.94824   0.87321
O          O       0.12679   0.05176   0.92497
O          O       0.20182   0.07503   0.12679
O          O       0.07503   0.87321   0.94824
O          O       0.05176   0.12679   0.92497
O          O       0.87321   0.07503   0.94824
O          O       0.07503   0.20182   0.12679
O          O       0.12679   0.20182   0.07503
O          O       0.94824   0.07503   0.87321
O          O       0.92497   0.12679   0.05176
O          O       0.94824   0.87321   0.07503
O          O       0.12679   0.07503   0.20182
O          O       0.92497   0.05176   0.12679
O          O       0.87321   0.94824   0.07503
O          O       0.05176   0.92497   0.12679
O          O       0.07503   0.12679   0.20182
O          O       0.79818   0.87321   0.92497
O          O       0.87321   0.92497   0.79818
O          O       0.92497   0.79818   0.87321
O          O       0.87321   0.79818   0.92497
O          O       0.79818   0.92497   0.87321
O          O       0.92497   0.87321   0.79818
O          O       0.34955   0.64596   0.29641
O          O       0.05314   0.70359   0.34955
O          O       0.70359   0.65045   0.35404
O          O       0.05314   0.34955   0.70359
O          O       0.34955   0.29641   0.64596
O          O       0.70359   0.35404   0.65045
O          O       0.34955   0.05314   0.70359
O          O       0.35404   0.70359   0.65045
O          O       0.29641   0.34955   0.64596
O          O       0.64596   0.34955   0.29641
O          O       0.65045   0.70359   0.35404
O          O       0.70359   0.05314   0.34955
O          O       0.65045   0.35404   0.70359
O          O       0.64596   0.29641   0.34955
O          O       0.70359   0.34955   0.05314
O          O       0.35404   0.65045   0.70359
O          O       0.34955   0.70359   0.05314
O          O       0.29641   0.64596   0.34955
O          O       0.65045   0.94686   0.29641
O          O       0.94686   0.29641   0.65045
O          O       0.29641   0.65045   0.94686
O          O       0.94686   0.65045   0.29641
O          O       0.65045   0.29641   0.94686
O          O       0.29641   0.94686   0.65045
O          O       0.62452   0.51554   0.00000
O          O       0.62452   0.00000   0.51554
O          O       0.10898   0.48446   0.48446
O          O       0.51554   0.62452   0.00000
O          O       0.48446   0.10898   0.48446
O          O       1.00000   0.62452   0.51554
O          O       0.48446   0.48446   0.10898
O          O       0.51554   0.00000   0.62452
O          O       0.00000   0.51554   0.62452
O          O       0.37548   0.37548   0.89102
O          O       0.37548   0.89102   0.37548
O          O       0.89102   0.37548   0.37548
O          O       0.37548   0.48446   0.00000
O          O       0.37548   0.00000   0.48446
O          O       0.89102   0.51554   0.51554
O          O       0.48446   0.37548   0.00000
O          O       0.51554   0.89102   0.51554
O          O       0.00000   0.37548   0.48446
O          O       0.51554   0.51554   0.89102
O          O       0.48446   0.00000   0.37548
O          O       1.00000   0.48446   0.37548
O          O       0.62452   0.62452   0.10898
O          O       0.62452   0.10898   0.62452
O          O       0.10898   0.62452   0.62452
O          O       0.40135   0.29211   1.00000
O          O       0.40135   0.00000   0.29211
O          O       0.10924   0.70789   0.70789
O          O       0.29211   0.40135   0.00000
O          O       0.70789   0.10924   0.70789
O          O       1.00000   0.40135   0.29211
O          O       0.70789   0.70789   0.10924
O          O       0.29211   1.00000   0.40135
O          O       1.00000   0.29211   0.40135
O          O       0.59865   0.59865   0.89076
O          O       0.59865   0.89076   0.59865
O          O       0.89076   0.59865   0.59865
O          O       0.59865   0.70789   1.00000
O          O       0.59865   1.00000   0.70789
O          O       0.89076   0.29211   0.29211
O          O       0.70789   0.59865   1.00000
O          O       0.29211   0.89076   0.29211
O          O       1.00000   0.59865   0.70789
O          O       0.29211   0.29211   0.89076
O          O       0.70789   0.00000   0.59865
O          O       1.00000   0.70789   0.59865
O          O       0.40135   0.40135   0.10924
O          O       0.40135   0.10924   0.40135
O          O       0.10924   0.40135   0.40135
O          O       0.26443   0.15451   0.00000
O          O       0.26443   0.00000   0.15451
O          O       0.10992   0.84549   0.84549
O          O       0.15451   0.26443   0.00000
O          O       0.84549   0.10992   0.84549
O          O       1.00000   0.26443   0.15451
O          O       0.84549   0.84549   0.10992
O          O       0.15451   1.00000   0.26443
O          O       1.00000   0.15451   0.26443
O          O       0.73557   0.73557   0.89008
O          O       0.73557   0.89008   0.73557
O          O       0.89008   0.73557   0.73557
O          O       0.73557   0.84549   0.00000
O          O       0.73557   1.00000   0.84549
O          O       0.89008   0.15451   0.15451
O          O       0.84549   0.73557   0.00000
O          O       0.15451   0.89008   0.15451
O          O       1.00000   0.73557   0.84549
O          O       0.15451   0.15451   0.89008
O          O       0.84549   0.00000   0.73557
O          O       1.00000   0.84549   0.73557
O          O       0.26443   0.26443   0.10992
O          O       0.26443   0.10992   0.26443
O          O       0.10992   0.26443   0.26443
O          O       0.66962   0.29280   0.29280
O          O       0.37682   0.70720   1.00000
O          O       0.37682   1.00000   0.70720
O          O       1.00000   0.37682   0.70720
O          O       0.70720   0.37682   0.00000
O          O       0.29280   0.66962   0.29280
O          O       1.00000   0.70720   0.37682
O          O       0.29280   0.29280   0.66962
O          O       0.70720   0.00000   0.37682
O          O       0.33038   0.62318   0.62318
O          O       0.62318   0.62318   0.33038
O          O       0.62318   0.33038   0.62318
O          O       0.33038   0.70720   0.70720
O          O       0.62318   0.29280   0.00000
O          O       0.62318   0.00000   0.29280
O          O       1.00000   0.62318   0.29280
O          O       0.29280   0.62318   0.00000
O          O       0.70720   0.33038   0.70720
O          O       1.00000   0.29280   0.62318
O          O       0.70720   0.70720   0.33038
O          O       0.29280   1.00000   0.62318
O          O       0.66962   0.37682   0.37682
O          O       0.37682   0.37682   0.66962
O          O       0.37682   0.66962   0.37682
O          O       0.33146   0.84471   0.84471
O          O       0.48675   0.15529   1.00000
O          O       0.48675   1.00000   0.15529
O          O       1.00000   0.48675   0.15529
O          O       0.15529   0.48675   0.00000
O          O       0.84471   0.33146   0.84471
O          O       1.00000   0.15529   0.48675
O          O       0.84471   0.84471   0.33146
O          O       0.15529   1.00000   0.48675
O          O       0.66854   0.51325   0.51325
O          O       0.51325   0.51325   0.66854
O          O       0.51325   0.66854   0.51325
O          O       0.66854   0.15529   0.15529
O          O       0.51325   0.84471   0.00000
O          O       0.51325   1.00000   0.84471
O          O       1.00000   0.51325   0.84471
O          O       0.84471   0.51325   0.00000
O          O       0.15529   0.66854   0.15529
O          O       1.00000   0.84471   0.51325
O          O       0.15529   0.15529   0.66854
O          O       0.84471   0.00000   0.51325
O          O       0.33146   0.48675   0.48675
O          O       0.48675   0.48675   0.33146
O          O       0.48675   0.33146   0.48675
O          O       0.44644   0.15467   0.15467
O          O       0.29177   0.84533   0.00000
O          O       0.29177   1.00000   0.84533
O          O       1.00000   0.29177   0.84533
O          O       0.84533   0.29177   1.00000
O          O       0.15467   0.44644   0.15467
O          O       1.00000   0.84533   0.29177
O          O       0.15467   0.15467   0.44644
O          O       0.84533   0.00000   0.29177
O          O       0.55356   0.70823   0.70823
O          O       0.70823   0.70823   0.55356
O          O       0.70823   0.55356   0.70823
O          O       0.55356   0.84533   0.84533
O          O       0.70823   0.15467   1.00000
O          O       0.70823   0.00000   0.15467
O          O       1.00000   0.70823   0.15467
O          O       0.15467   0.70823   0.00000
O          O       0.84533   0.55356   0.84533
O          O       1.00000   0.15467   0.70823
O          O       0.84533   0.84533   0.55356
O          O       0.15467   1.00000   0.70823
O          O       0.44644   0.29177   0.29177
O          O       0.29177   0.29177   0.44644
O          O       0.29177   0.44644   0.29177
O          O       0.22270   0.06780   0.06780
O          O       0.15490   0.93220   1.00000
O          O       0.15490   1.00000   0.93220
O          O       1.00000   0.15490   0.93220
O          O       0.93220   0.15490   1.00000
O          O       0.06780   0.22270   0.06780
O          O       1.00000   0.93220   0.15490
O          O       0.06780   0.06780   0.22270
O          O       0.93220   1.00000   0.15490
O          O       0.77730   0.84510   0.84510
O          O       0.84510   0.84510   0.77730
O          O       0.84510   0.77730   0.84510
O          O       0.77730   0.93220   0.93220
O          O       0.84510   0.06780   1.00000
O          O       0.84510   1.00000   0.06780
O          O       1.00000   0.84510   0.06780
O          O       0.06780   0.84510   0.00000
O          O       0.93220   0.77730   0.93220
O          O       1.00000   0.06780   0.84510
O          O       0.93220   0.93220   0.77730
O          O       0.06780   1.00000   0.84510
O          O       0.22270   0.15490   0.15490
O          O       0.15490   0.15490   0.22270
O          O       0.15490   0.22270   0.15490
O          O       0.37671   1.00000   0.93101
O          O       0.44570   0.06899   0.06899
O          O       0.37671   0.93101   0.00000
O          O       0.06899   0.44570   0.06899
O          O       1.00000   0.37671   0.93101
O          O       0.93101   0.37671   1.00000
O          O       0.93101   0.00000   0.37671
O          O       0.00000   0.93101   0.37671
O          O       0.06899   0.06899   0.44570
O          O       0.62329   0.55430   0.62329
O          O       0.55430   0.62329   0.62329
O          O       0.62329   0.62329   0.55430
O          O       0.62329   1.00000   0.06899
O          O       0.55430   0.93101   0.93101
O          O       0.62329   0.06899   1.00000
O          O       0.93101   0.55430   0.93101
O          O       0.00000   0.62329   0.06899
O          O       0.06899   0.62329   0.00000
O          O       0.06899   1.00000   0.62329
O          O       1.00000   0.06899   0.62329
O          O       0.93101   0.93101   0.55430
O          O       0.37671   0.44570   0.37671
O          O       0.44570   0.37671   0.37671
O          O       0.37671   0.37671   0.44570
O          O       0.17908   0.06876   1.00000
O          O       0.17908   0.00000   0.06876
O          O       0.11032   0.93124   0.93124
O          O       0.06876   0.17908   0.00000
O          O       0.93124   0.11032   0.93124
O          O       1.00000   0.17908   0.06876
O          O       0.93124   0.93124   0.11032
O          O       0.06876   1.00000   0.17908
O          O       1.00000   0.06876   0.17908
O          O       0.82092   0.82092   0.88968
O          O       0.82092   0.88968   0.82092
O          O       0.88968   0.82092   0.82092
O          O       0.82092   0.93124   1.00000
O          O       0.82092   1.00000   0.93124
O          O       0.88968   0.06876   0.06876
O          O       0.93124   0.82092   1.00000
O          O       0.06876   0.88968   0.06876
O          O       1.00000   0.82092   0.93124
O          O       0.06876   0.06876   0.88968
O          O       0.93124   0.00000   0.82092
O          O       1.00000   0.93124   0.82092
O          O       0.17908   0.17908   0.11032
O          O       0.17908   0.11032   0.17908
O          O       0.11032   0.17908   0.17908
O          O       0.40122   0.06788   1.00000
O          O       0.40122   0.00000   0.06788
O          O       0.33333   0.93212   0.93212
O          O       0.06788   0.40122   0.00000
O          O       0.93212   0.33333   0.93212
O          O       1.00000   0.40122   0.06788
O          O       0.93212   0.93212   0.33333
O          O       0.06788   1.00000   0.40122
O          O       1.00000   0.06788   0.40122
O          O       0.59878   0.59878   0.66667
O          O       0.59878   0.66667   0.59878
O          O       0.66667   0.59878   0.59878
O          O       0.59878   0.93212   0.00000
O          O       0.59878   1.00000   0.93212
O          O       0.66667   0.06788   0.06788
O          O       0.93212   0.59878   1.00000
O          O       0.06788   0.66667   0.06788
O          O       1.00000   0.59878   0.93212
O          O       0.06788   0.06788   0.66667
O          O       0.93212   0.00000   0.59878
O          O       1.00000   0.93212   0.59878
O          O       0.40122   0.40122   0.33333
O          O       0.40122   0.33333   0.40122
O          O       0.33333   0.40122   0.40122
O          O       0.62853   0.46124   0.08977
O          O       0.53876   0.91023   0.37147
O          O       0.16729   0.62853   0.53876
O          O       0.53876   0.37147   0.91023
O          O       0.62853   0.08977   0.46124
O          O       0.16729   0.53876   0.62853
O          O       0.37147   0.53876   0.91023
O          O       0.53876   0.16729   0.62853
O          O       0.08977   0.62853   0.46124
O          O       0.46124   0.62853   0.08977
O          O       0.62853   0.16729   0.53876
O          O       0.91023   0.53876   0.37147
O          O       0.62853   0.53876   0.16729
O          O       0.46124   0.08977   0.62853
O          O       0.91023   0.37147   0.53876
O          O       0.53876   0.62853   0.16729
O          O       0.37147   0.91023   0.53876
O          O       0.08977   0.46124   0.62853
O          O       0.37147   0.46124   0.83271
O          O       0.46124   0.83271   0.37147
O          O       0.83271   0.37147   0.46124
O          O       0.46124   0.37147   0.83271
O          O       0.37147   0.83271   0.46124
O          O       0.83271   0.46124   0.37147
Si         Si      0.43768   0.31951   0.04897
Si         Si      0.38871   0.95103   0.27054
Si         Si      0.11817   0.72946   0.68049
Si         Si      0.38871   0.27054   0.95103
Si         Si      0.43768   0.04897   0.31951
Si         Si      0.11817   0.68049   0.72946
Si         Si      0.27054   0.38871   0.95103
Si         Si      0.68049   0.11817   0.72946
Si         Si      0.04897   0.43768   0.31951
Si         Si      0.31951   0.43768   0.04897
Si         Si      0.72946   0.11817   0.68049
Si         Si      0.95103   0.38871   0.27054
Si         Si      0.72946   0.68049   0.11817
Si         Si      0.31951   0.04897   0.43768
Si         Si      0.95103   0.27054   0.38871
Si         Si      0.68049   0.72946   0.11817
Si         Si      0.27054   0.95103   0.38871
Si         Si      0.04897   0.31951   0.43768
Si         Si      0.56232   0.61129   0.88183
Si         Si      0.61129   0.88183   0.56232
Si         Si      0.88183   0.56232   0.61129
Si         Si      0.61129   0.56232   0.88183
Si         Si      0.56232   0.88183   0.61129
Si         Si      0.88183   0.61129   0.56232
Si         Si      0.56232   0.68049   0.95103
Si         Si      0.61129   0.04897   0.72946
Si         Si      0.88183   0.27054   0.31951
Si         Si      0.61129   0.72946   0.04897
Si         Si      0.56232   0.95103   0.68049
Si         Si      0.88183   0.31951   0.27054
Si         Si      0.72946   0.61129   0.04897
Si         Si      0.31951   0.88183   0.27054
Si         Si      0.95103   0.56232   0.68049
Si         Si      0.68049   0.56232   0.95103
Si         Si      0.27054   0.88183   0.31951
Si         Si      0.04897   0.61129   0.72946
Si         Si      0.27054   0.31951   0.88183
Si         Si      0.68049   0.95103   0.56232
Si         Si      0.04897   0.72946   0.61129
Si         Si      0.31951   0.27054   0.88183
Si         Si      0.72946   0.04897   0.61129
Si         Si      0.95103   0.68049   0.56232
Si         Si      0.43768   0.38871   0.11817
Si         Si      0.38871   0.11817   0.43768
Si         Si      0.11817   0.43768   0.38871
Si         Si      0.38871   0.43768   0.11817
Si         Si      0.43768   0.11817   0.38871
Si         Si      0.11817   0.38871   0.43768
Si         Si      0.45106   0.27775   0.10425
Si         Si      0.34681   0.89575   0.17350
Si         Si      0.17331   0.82650   0.72225
Si         Si      0.34681   0.17350   0.89575
Si         Si      0.45106   0.10425   0.27775
Si         Si      0.17331   0.72225   0.82650
Si         Si      0.17350   0.34681   0.89575
Si         Si      0.72225   0.17331   0.82650
Si         Si      0.10425   0.45106   0.27775
Si         Si      0.27775   0.45106   0.10425
Si         Si      0.82650   0.17331   0.72225
Si         Si      0.89575   0.34681   0.17350
Si         Si      0.82650   0.72225   0.17331
Si         Si      0.27775   0.10425   0.45106
Si         Si      0.89575   0.17350   0.34681
Si         Si      0.72225   0.82650   0.17331
Si         Si      0.17350   0.89575   0.34681
Si         Si      0.10425   0.27775   0.45106
Si         Si      0.54894   0.65319   0.82669
Si         Si      0.65319   0.82669   0.54894
Si         Si      0.82669   0.54894   0.65319
Si         Si      0.65319   0.54894   0.82669
Si         Si      0.54894   0.82669   0.65319
Si         Si      0.82669   0.65319   0.54894
Si         Si      0.54894   0.72225   0.89575
Si         Si      0.65319   0.10425   0.82650
Si         Si      0.82669   0.17350   0.27775
Si         Si      0.65319   0.82650   0.10425
Si         Si      0.54894   0.89575   0.72225
Si         Si      0.82669   0.27775   0.17350
Si         Si      0.82650   0.65319   0.10425
Si         Si      0.27775   0.82669   0.17350
Si         Si      0.89575   0.54894   0.72225
Si         Si      0.72225   0.54894   0.89575
Si         Si      0.17350   0.82669   0.27775
Si         Si      0.10425   0.65319   0.82650
Si         Si      0.17350   0.27775   0.82669
Si         Si      0.72225   0.89575   0.54894
Si         Si      0.10425   0.82650   0.65319
Si         Si      0.27775   0.17350   0.82669
Si         Si      0.82650   0.10425   0.65319
Si         Si      0.89575   0.72225   0.54894
Si         Si      0.45106   0.34681   0.17331
Si         Si      0.34681   0.17331   0.45106
Si         Si      0.17331   0.45106   0.34681
Si         Si      0.34681   0.45106   0.17331
Si         Si      0.45106   0.17331   0.34681
Si         Si      0.17331   0.34681   0.45106
Si         Si      0.38199   0.20833   0.10472
Si         Si      0.27727   0.89528   0.10361
Si         Si      0.17366   0.89639   0.79167
Si         Si      0.27727   0.10361   0.89528
Si         Si      0.38199   0.10472   0.20833
Si         Si      0.17366   0.79167   0.89639
Si         Si      0.10361   0.27727   0.89528
Si         Si      0.79167   0.17366   0.89639
Si         Si      0.10472   0.38199   0.20833
Si         Si      0.20833   0.38199   0.10472
Si         Si      0.89639   0.17366   0.79167
Si         Si      0.89528   0.27727   0.10361
Si         Si      0.89639   0.79167   0.17366
Si         Si      0.20833   0.10472   0.38199
Si         Si      0.89528   0.10361   0.27727
Si         Si      0.79167   0.89639   0.17366
Si         Si      0.10361   0.89528   0.27727
Si         Si      0.10472   0.20833   0.38199
Si         Si      0.61801   0.72273   0.82634
Si         Si      0.72273   0.82634   0.61801
Si         Si      0.82634   0.61801   0.72273
Si         Si      0.72273   0.61801   0.82634
Si         Si      0.61801   0.82634   0.72273
Si         Si      0.82634   0.72273   0.61801
Si         Si      0.61801   0.79167   0.89528
Si         Si      0.72273   0.10472   0.89639
Si         Si      0.82634   0.10361   0.20833
Si         Si      0.72273   0.89639   0.10472
Si         Si      0.61801   0.89528   0.79167
Si         Si      0.82634   0.20833   0.10361
Si         Si      0.89639   0.72273   0.10472
Si         Si      0.20833   0.82634   0.10361
Si         Si      0.89528   0.61801   0.79167
Si         Si      0.79167   0.61801   0.89528
Si         Si      0.10361   0.82634   0.20833
Si         Si      0.10472   0.72273   0.89639
Si         Si      0.10361   0.20833   0.82634
Si         Si      0.79167   0.89528   0.61801
Si         Si      0.10472   0.89639   0.72273
Si         Si      0.20833   0.10361   0.82634
Si         Si      0.89639   0.10472   0.72273
Si         Si      0.89528   0.79167   0.61801
Si         Si      0.38199   0.27727   0.17366
Si         Si      0.27727   0.17366   0.38199
Si         Si      0.17366   0.38199   0.27727
Si         Si      0.27727   0.38199   0.17366
Si         Si      0.38199   0.17366   0.27727
Si         Si      0.17366   0.27727   0.38199
Si         Si      0.28467   0.16670   0.04887
Si         Si      0.23580   0.95113   0.11783
Si         Si      0.11797   0.88217   0.83330
Si         Si      0.23580   0.11783   0.95113
Si         Si      0.28467   0.04887   0.16670
Si         Si      0.11797   0.83330   0.88217
Si         Si      0.11783   0.23580   0.95113
Si         Si      0.83330   0.11797   0.88217
Si         Si      0.04887   0.28467   0.16670
Si         Si      0.16670   0.28467   0.04887
Si         Si      0.88217   0.11797   0.83330
Si         Si      0.95113   0.23580   0.11783
Si         Si      0.88217   0.83330   0.11797
Si         Si      0.16670   0.04887   0.28467
Si         Si      0.95113   0.11783   0.23580
Si         Si      0.83330   0.88217   0.11797
Si         Si      0.11783   0.95113   0.23580
Si         Si      0.04887   0.16670   0.28467
Si         Si      0.71533   0.76420   0.88203
Si         Si      0.76420   0.88203   0.71533
Si         Si      0.88203   0.71533   0.76420
Si         Si      0.76420   0.71533   0.88203
Si         Si      0.71533   0.88203   0.76420
Si         Si      0.88203   0.76420   0.71533
Si         Si      0.71533   0.83330   0.95113
Si         Si      0.76420   0.04887   0.88217
Si         Si      0.88203   0.11783   0.16670
Si         Si      0.76420   0.88217   0.04887
Si         Si      0.71533   0.95113   0.83330
Si         Si      0.88203   0.16670   0.11783
Si         Si      0.88217   0.76420   0.04887
Si         Si      0.16670   0.88203   0.11783
Si         Si      0.95113   0.71533   0.83330
Si         Si      0.83330   0.71533   0.95113
Si         Si      0.11783   0.88203   0.16670
Si         Si      0.04887   0.76420   0.88217
Si         Si      0.11783   0.16670   0.88203
Si         Si      0.83330   0.95113   0.71533
Si         Si      0.04887   0.88217   0.76420
Si         Si      0.16670   0.11783   0.88203
Si         Si      0.88217   0.04887   0.76420
Si         Si      0.95113   0.83330   0.71533
Si         Si      0.28467   0.23580   0.11797
Si         Si      0.23580   0.11797   0.28467
Si         Si      0.11797   0.28467   0.23580
Si         Si      0.23580   0.28467   0.11797
Si         Si      0.28467   0.11797   0.23580
Si         Si      0.11797   0.23580   0.28467
Si         Si      0.21568   0.09767   0.04891
Si         Si      0.16677   0.95109   0.04876
Si         Si      0.11801   0.95124   0.90233
Si         Si      0.16677   0.04876   0.95109
Si         Si      0.21568   0.04891   0.09767
Si         Si      0.11801   0.90233   0.95124
Si         Si      0.04876   0.16677   0.95109
Si         Si      0.90233   0.11801   0.95124
Si         Si      0.04891   0.21568   0.09767
Si         Si      0.09767   0.21568   0.04891
Si         Si      0.95124   0.11801   0.90233
Si         Si      0.95109   0.16677   0.04876
Si         Si      0.95124   0.90233   0.11801
Si         Si      0.09767   0.04891   0.21568
Si         Si      0.95109   0.04876   0.16677
Si         Si      0.90233   0.95124   0.11801
Si         Si      0.04876   0.95109   0.16677
Si         Si      0.04891   0.09767   0.21568
Si         Si      0.78432   0.83323   0.88199
Si         Si      0.83323   0.88199   0.78432
Si         Si      0.88199   0.78432   0.83323
Si         Si      0.83323   0.78432   0.88199
Si         Si      0.78432   0.88199   0.83323
Si         Si      0.88199   0.83323   0.78432
Si         Si      0.78432   0.90233   0.95109
Si         Si      0.83323   0.04891   0.95124
Si         Si      0.88199   0.04876   0.09767
Si         Si      0.83323   0.95124   0.04891
Si         Si      0.78432   0.95109   0.90233
Si         Si      0.88199   0.09767   0.04876
Si         Si      0.95124   0.83323   0.04891
Si         Si      0.09767   0.88199   0.04876
Si         Si      0.95109   0.78432   0.90233
Si         Si      0.90233   0.78432   0.95109
Si         Si      0.04876   0.88199   0.09767
Si         Si      0.04891   0.83323   0.95124
Si         Si      0.04876   0.09767   0.88199
Si         Si      0.90233   0.95109   0.78432
Si         Si      0.04891   0.95124   0.83323
Si         Si      0.09767   0.04876   0.88199
Si         Si      0.95124   0.04891   0.83323
Si         Si      0.95109   0.90233   0.78432
Si         Si      0.21568   0.16677   0.11801
Si         Si      0.16677   0.11801   0.21568
Si         Si      0.11801   0.21568   0.16677
Si         Si      0.16677   0.21568   0.11801
Si         Si      0.21568   0.11801   0.16677
Si         Si      0.11801   0.16677   0.21568
Si         Si      0.66090   0.54266   0.04894
Si         Si      0.61196   0.95106   0.49372
Si         Si      0.11824   0.50628   0.45734
Si         Si      0.61196   0.49372   0.95106
Si         Si      0.66090   0.04894   0.54266
Si         Si      0.11824   0.45734   0.50628
Si         Si      0.49372   0.61196   0.95106
Si         Si      0.45734   0.11824   0.50628
Si         Si      0.04894   0.66090   0.54266
Si         Si      0.54266   0.66090   0.04894
Si         Si      0.50628   0.11824   0.45734
Si         Si      0.95106   0.61196   0.49372
Si         Si      0.50628   0.45734   0.11824
Si         Si      0.54266   0.04894   0.66090
Si         Si      0.95106   0.49372   0.61196
Si         Si      0.45734   0.50628   0.11824
Si         Si      0.49372   0.95106   0.61196
Si         Si      0.04894   0.54266   0.66090
Si         Si      0.33910   0.38804   0.88176
Si         Si      0.38804   0.88176   0.33910
Si         Si      0.88176   0.33910   0.38804
Si         Si      0.38804   0.33910   0.88176
Si         Si      0.33910   0.88176   0.38804
Si         Si      0.88176   0.38804   0.33910
Si         Si      0.33910   0.45734   0.95106
Si         Si      0.38804   0.04894   0.50628
Si         Si      0.88176   0.49372   0.54266
Si         Si      0.38804   0.50628   0.04894
Si         Si      0.33910   0.95106   0.45734
Si         Si      0.88176   0.54266   0.49372
Si         Si      0.50628   0.38804   0.04894
Si         Si      0.54266   0.88176   0.49372
Si         Si      0.95106   0.33910   0.45734
Si         Si      0.45734   0.33910   0.95106
Si         Si      0.49372   0.88176   0.54266
Si         Si      0.04894   0.38804   0.50628
Si         Si      0.49372   0.54266   0.88176
Si         Si      0.45734   0.95106   0.33910
Si         Si      0.04894   0.50628   0.38804
Si         Si      0.54266   0.49372   0.88176
Si         Si      0.50628   0.04894   0.38804
Si         Si      0.95106   0.45734   0.33910
Si         Si      0.66090   0.61196   0.11824
Si         Si      0.61196   0.11824   0.66090
Si         Si      0.11824   0.66090   0.61196
Si         Si      0.61196   0.66090   0.11824
Si         Si      0.66090   0.11824   0.61196
Si         Si      0.11824   0.61196   0.66090
Si         Si      0.67232   0.49998   0.10332
Si         Si      0.56900   0.89668   0.39666
Si         Si      0.17234   0.60334   0.50002
Si         Si      0.56900   0.39666   0.89668
Si         Si      0.67232   0.10332   0.49998
Si         Si      0.17234   0.50002   0.60334
Si         Si      0.39666   0.56900   0.89668
Si         Si      0.50002   0.17234   0.60334
Si         Si      0.10332   0.67232   0.49998
Si         Si      0.49998   0.67232   0.10332
Si         Si      0.60334   0.17234   0.50002
Si         Si      0.89668   0.56900   0.39666
Si         Si      0.60334   0.50002   0.17234
Si         Si      0.49998   0.10332   0.67232
Si         Si      0.89668   0.39666   0.56900
Si         Si      0.50002   0.60334   0.17234
Si         Si      0.39666   0.89668   0.56900
Si         Si      0.10332   0.49998   0.67232
Si         Si      0.32768   0.43100   0.82766
Si         Si      0.43100   0.82766   0.32768
Si         Si      0.82766   0.32768   0.43100
Si         Si      0.43100   0.32768   0.82766
Si         Si      0.32768   0.82766   0.43100
Si         Si      0.82766   0.43100   0.32768
Si         Si      0.32768   0.50002   0.89668
Si         Si      0.43100   0.10332   0.60334
Si         Si      0.82766   0.39666   0.49998
Si         Si      0.43100   0.60334   0.10332
Si         Si      0.32768   0.89668   0.50002
Si         Si      0.82766   0.49998   0.39666
Si         Si      0.60334   0.43100   0.10332
Si         Si      0.49998   0.82766   0.39666
Si         Si      0.89668   0.32768   0.50002
Si         Si      0.50002   0.32768   0.89668
Si         Si      0.39666   0.82766   0.49998
Si         Si      0.10332   0.43100   0.60334
Si         Si      0.39666   0.49998   0.82766
Si         Si      0.50002   0.89668   0.32768
Si         Si      0.10332   0.60334   0.43100
Si         Si      0.49998   0.39666   0.82766
Si         Si      0.60334   0.10332   0.43100
Si         Si      0.89668   0.50002   0.32768
Si         Si      0.67232   0.56900   0.17234
Si         Si      0.56900   0.17234   0.67232
Si         Si      0.17234   0.67232   0.56900
Si         Si      0.56900   0.67232   0.17234
Si         Si      0.67232   0.17234   0.56900
Si         Si      0.17234   0.56900   0.67232
Si         Si      0.33944   0.88158   0.83278
Si         Si      0.50666   0.16722   0.04880
Si         Si      0.45786   0.95120   0.11842
Si         Si      0.50666   0.04880   0.16722
Si         Si      0.33944   0.83278   0.88158
Si         Si      0.45786   0.11842   0.95120
Si         Si      0.04880   0.50666   0.16722
Si         Si      0.11842   0.45786   0.95120
Si         Si      0.83278   0.33944   0.88158
Si         Si      0.88158   0.33944   0.83278
Si         Si      0.95120   0.45786   0.11842
Si         Si      0.16722   0.50666   0.04880
Si         Si      0.95120   0.11842   0.45786
Si         Si      0.88158   0.83278   0.33944
Si         Si      0.16722   0.04880   0.50666
Si         Si      0.11842   0.95120   0.45786
Si         Si      0.04880   0.16722   0.50666
Si         Si      0.83278   0.88158   0.33944
Si         Si      0.66056   0.49334   0.54214
Si         Si      0.49334   0.54214   0.66056
Si         Si      0.54214   0.66056   0.49334
Si         Si      0.49334   0.66056   0.54214
Si         Si      0.66056   0.54214   0.49334
Si         Si      0.54214   0.49334   0.66056
Si         Si      0.66056   0.11842   0.16722
Si         Si      0.49334   0.83278   0.95120
Si         Si      0.54214   0.04880   0.88158
Si         Si      0.49334   0.95120   0.83278
Si         Si      0.66056   0.16722   0.11842
Si         Si      0.54214   0.88158   0.04880
Si         Si      0.95120   0.49334   0.83278
Si         Si      0.88158   0.54214   0.04880
Si         Si      0.16722   0.66056   0.11842
Si         Si      0.11842   0.66056   0.16722
Si         Si      0.04880   0.54214   0.88158
Si         Si      0.83278   0.49334   0.95120
Si         Si      0.04880   0.88158   0.54214
Si         Si      0.11842   0.16722   0.66056
Si         Si      0.83278   0.95120   0.49334
Si         Si      0.88158   0.04880   0.54214
Si         Si      0.95120   0.83278   0.49334
Si         Si      0.16722   0.11842   0.66056
Si         Si      0.33944   0.50666   0.45786
Si         Si      0.50666   0.45786   0.33944
Si         Si      0.45786   0.33944   0.50666
Si         Si      0.50666   0.33944   0.45786
Si         Si      0.33944   0.45786   0.50666
Si         Si      0.45786   0.50666   0.33944
Si         Si      0.32020   0.04884   0.88208
Si         Si      0.43812   0.11792   0.16676
Si         Si      0.27136   0.83324   0.95116
Si         Si      0.43812   0.16676   0.11792
Si         Si      0.32020   0.88208   0.04884
Si         Si      0.27136   0.95116   0.83324
Si         Si      0.16676   0.43812   0.11792
Si         Si      0.95116   0.27136   0.83324
Si         Si      0.88208   0.32020   0.04884
Si         Si      0.04884   0.32020   0.88208
Si         Si      0.83324   0.27136   0.95116
Si         Si      0.11792   0.43812   0.16676
Si         Si      0.83324   0.95116   0.27136
Si         Si      0.04884   0.88208   0.32020
Si         Si      0.11792   0.16676   0.43812
Si         Si      0.95116   0.83324   0.27136
Si         Si      0.16676   0.11792   0.43812
Si         Si      0.88208   0.04884   0.32020
Si         Si      0.67980   0.56188   0.72864
Si         Si      0.56188   0.72864   0.67980
Si         Si      0.72864   0.67980   0.56188
Si         Si      0.56188   0.67980   0.72864
Si         Si      0.67980   0.72864   0.56188
Si         Si      0.72864   0.56188   0.67980
Si         Si      0.67980   0.95116   0.11792
Si         Si      0.56188   0.88208   0.83324
Si         Si      0.72864   0.16676   0.04884
Si         Si      0.56188   0.83324   0.88208
Si         Si      0.67980   0.11792   0.95116
Si         Si      0.72864   0.04884   0.16676
Si         Si      0.83324   0.56188   0.88208
Si         Si      0.04884   0.72864   0.16676
Si         Si      0.11792   0.67980   0.95116
Si         Si      0.95116   0.67980   0.11792
Si         Si      0.16676   0.72864   0.04884
Si         Si      0.88208   0.56188   0.83324
Si         Si      0.16676   0.04884   0.72864
Si         Si      0.95116   0.11792   0.67980
Si         Si      0.88208   0.83324   0.56188
Si         Si      0.04884   0.16676   0.72864
Si         Si      0.83324   0.88208   0.56188
Si         Si      0.11792   0.95116   0.67980
Si         Si      0.32020   0.43812   0.27136
Si         Si      0.43812   0.27136   0.32020
Si         Si      0.27136   0.32020   0.43812
Si         Si      0.43812   0.32020   0.27136
Si         Si      0.32020   0.27136   0.43812
Si         Si      0.27136   0.43812   0.32020
Si         Si      0.34006   0.95111   0.90223
Si         Si      0.43783   0.09777   0.04888
Si         Si      0.38895   0.95112   0.04889
Si         Si      0.43783   0.04888   0.09777
Si         Si      0.34006   0.90223   0.95111
Si         Si      0.38895   0.04889   0.95112
Si         Si      0.04888   0.43783   0.09777
Si         Si      0.04889   0.38895   0.95112
Si         Si      0.90223   0.34006   0.95111
Si         Si      0.95111   0.34006   0.90223
Si         Si      0.95112   0.38895   0.04889
Si         Si      0.09777   0.43783   0.04888
Si         Si      0.95112   0.04889   0.38895
Si         Si      0.95111   0.90223   0.34006
Si         Si      0.09777   0.04888   0.43783
Si         Si      0.04889   0.95112   0.38895
Si         Si      0.04888   0.09777   0.43783
Si         Si      0.90223   0.95111   0.34006
Si         Si      0.65994   0.56217   0.61105
Si         Si      0.56217   0.61105   0.65994
Si         Si      0.61105   0.65994   0.56217
Si         Si      0.56217   0.65994   0.61105
Si         Si      0.65994   0.61105   0.56217
Si         Si      0.61105   0.56217   0.65994
Si         Si      0.65994   0.04889   0.09777
Si         Si      0.56217   0.90223   0.95112
Si         Si      0.61105   0.04888   0.95111
Si         Si      0.56217   0.95112   0.90223
Si         Si      0.65994   0.09777   0.04889
Si         Si      0.61105   0.95111   0.04888
Si         Si      0.95112   0.56217   0.90223
Si         Si      0.95111   0.61105   0.04888
Si         Si      0.09777   0.65994   0.04889
Si         Si      0.04889   0.65994   0.09777
Si         Si      0.04888   0.61105   0.95111
Si         Si      0.90223   0.56217   0.95112
Si         Si      0.04888   0.95111   0.61105
Si         Si      0.04889   0.09777   0.65994
Si         Si      0.90223   0.95112   0.56217
Si         Si      0.95111   0.04888   0.61105
Si         Si      0.95112   0.90223   0.56217
Si         Si      0.09777   0.04889   0.65994
Si         Si      0.34006   0.43783   0.38895
Si         Si      0.43783   0.38895   0.34006
Si         Si      0.38895   0.34006   0.43783
Si         Si      0.43783   0.34006   0.38895
Si         Si      0.34006   0.38895   0.43783
Si         Si      0.38895   0.43783   0.34006
Si         Si      0.50735   0.11840   0.23641
Si         Si      0.27094   0.76359   0.88199
Si         Si      0.38895   0.11801   0.88160
Si         Si      0.27094   0.88199   0.76359
Si         Si      0.50735   0.23641   0.11840
Si         Si      0.38895   0.88160   0.11801
Si         Si      0.88199   0.27094   0.76359
Si         Si      0.88160   0.38895   0.11801
Si         Si      0.23641   0.50735   0.11840
Si         Si      0.11840   0.50735   0.23641
Si         Si      0.11801   0.38895   0.88160
Si         Si      0.76359   0.27094   0.88199
Si         Si      0.11801   0.88160   0.38895
Si         Si      0.11840   0.23641   0.50735
Si         Si      0.76359   0.88199   0.27094
Si         Si      0.88160   0.11801   0.38895
Si         Si      0.88199   0.76359   0.27094
Si         Si      0.23641   0.11840   0.50735
Si         Si      0.49265   0.72906   0.61105
Si         Si      0.72906   0.61105   0.49265
Si         Si      0.61105   0.49265   0.72906
Si         Si      0.72906   0.49265   0.61105
Si         Si      0.49265   0.61105   0.72906
Si         Si      0.61105   0.72906   0.49265
Si         Si      0.49265   0.88160   0.76359
Si         Si      0.72906   0.23641   0.11801
Si         Si      0.61105   0.88199   0.11840
Si         Si      0.72906   0.11801   0.23641
Si         Si      0.49265   0.76359   0.88160
Si         Si      0.61105   0.11840   0.88199
Si         Si      0.11801   0.72906   0.23641
Si         Si      0.11840   0.61105   0.88199
Si         Si      0.76359   0.49265   0.88160
Si         Si      0.88160   0.49265   0.76359
Si         Si      0.88199   0.61105   0.11840
Si         Si      0.23641   0.72906   0.11801
Si         Si      0.88199   0.11840   0.61105
Si         Si      0.88160   0.76359   0.49265
Si         Si      0.23641   0.11801   0.72906
Si         Si      0.11840   0.88199   0.61105
Si         Si      0.11801   0.23641   0.72906
Si         Si      0.76359   0.88160   0.49265
Si         Si      0.50735   0.27094   0.38895
Si         Si      0.27094   0.38895   0.50735
Si         Si      0.38895   0.50735   0.27094
Si         Si      0.27094   0.50735   0.38895
Si         Si      0.50735   0.38895   0.27094
Si         Si      0.38895   0.27094   0.50735
Si         Si      0.65974   0.32065   0.04891
Si         Si      0.61083   0.95109   0.27174
Si         Si      0.33909   0.72826   0.67935
Si         Si      0.61083   0.27174   0.95109
Si         Si      0.65974   0.04891   0.32065
Si         Si      0.33909   0.67935   0.72826
Si         Si      0.27174   0.61083   0.95109
Si         Si      0.67935   0.33909   0.72826
Si         Si      0.04891   0.65974   0.32065
Si         Si      0.32065   0.65974   0.04891
Si         Si      0.72826   0.33909   0.67935
Si         Si      0.95109   0.61083   0.27174
Si         Si      0.72826   0.67935   0.33909
Si         Si      0.32065   0.04891   0.65974
Si         Si      0.95109   0.27174   0.61083
Si         Si      0.67935   0.72826   0.33909
Si         Si      0.27174   0.95109   0.61083
Si         Si      0.04891   0.32065   0.65974
Si         Si      0.34026   0.38917   0.66091
Si         Si      0.38917   0.66091   0.34026
Si         Si      0.66091   0.34026   0.38917
Si         Si      0.38917   0.34026   0.66091
Si         Si      0.34026   0.66091   0.38917
Si         Si      0.66091   0.38917   0.34026
Si         Si      0.34026   0.67935   0.95109
Si         Si      0.38917   0.04891   0.72826
Si         Si      0.66091   0.27174   0.32065
Si         Si      0.38917   0.72826   0.04891
Si         Si      0.34026   0.95109   0.67935
Si         Si      0.66091   0.32065   0.27174
Si         Si      0.72826   0.38917   0.04891
Si         Si      0.32065   0.66091   0.27174
Si         Si      0.95109   0.34026   0.67935
Si         Si      0.67935   0.34026   0.95109
Si         Si      0.27174   0.66091   0.32065
Si         Si      0.04891   0.38917   0.72826
Si         Si      0.27174   0.32065   0.66091
Si         Si      0.67935   0.95109   0.34026
Si         Si      0.04891   0.72826   0.38917
Si         Si      0.32065   0.27174   0.66091
Si         Si      0.72826   0.04891   0.38917
Si         Si      0.95109   0.67935   0.34026
Si         Si      0.65974   0.61083   0.33909
Si         Si      0.61083   0.33909   0.65974
Si         Si      0.33909   0.65974   0.61083
Si         Si      0.61083   0.65974   0.33909
Si         Si      0.65974   0.33909   0.61083
Si         Si      0.33909   0.61083   0.65974
Si         Si      0.72945   0.38985   0.27116
Si         Si      0.45829   0.72884   0.11869
Si         Si      0.33960   0.88131   0.61015
Si         Si      0.45829   0.11869   0.72884
Si         Si      0.72945   0.27116   0.38985
Si         Si      0.33960   0.61015   0.88131
Si         Si      0.11869   0.45829   0.72884
Si         Si      0.61015   0.33960   0.88131
Si         Si      0.27116   0.72945   0.38985
Si         Si      0.38985   0.72945   0.27116
Si         Si      0.88131   0.33960   0.61015
Si         Si      0.72884   0.45829   0.11869
Si         Si      0.88131   0.61015   0.33960
Si         Si      0.38985   0.27116   0.72945
Si         Si      0.72884   0.11869   0.45829
Si         Si      0.61015   0.88131   0.33960
Si         Si      0.11869   0.72884   0.45829
Si         Si      0.27116   0.38985   0.72945
Si         Si      0.27055   0.54171   0.66040
Si         Si      0.54171   0.66040   0.27055
Si         Si      0.66040   0.27055   0.54171
Si         Si      0.54171   0.27055   0.66040
Si         Si      0.27055   0.66040   0.54171
Si         Si      0.66040   0.54171   0.27055
Si         Si      0.27055   0.61015   0.72884
Si         Si      0.54171   0.27116   0.88131
Si         Si      0.66040   0.11869   0.38985
Si         Si      0.54171   0.88131   0.27116
Si         Si      0.27055   0.72884   0.61015
Si         Si      0.66040   0.38985   0.11869
Si         Si      0.88131   0.54171   0.27116
Si         Si      0.38985   0.66040   0.11869
Si         Si      0.72884   0.27055   0.61015
Si         Si      0.61015   0.27055   0.72884
Si         Si      0.11869   0.66040   0.38985
Si         Si      0.27116   0.54171   0.88131
Si         Si      0.11869   0.38985   0.66040
Si         Si      0.61015   0.72884   0.27055
Si         Si      0.27116   0.88131   0.54171
Si         Si      0.38985   0.11869   0.66040
Si         Si      0.88131   0.27116   0.54171
Si         Si      0.72884   0.61015   0.27055
Si         Si      0.72945   0.45829   0.33960
Si         Si      0.45829   0.33960   0.72945
Si         Si      0.33960   0.72945   0.45829
Si         Si      0.45829   0.72945   0.33960
Si         Si      0.72945   0.33960   0.45829
Si         Si      0.33960   0.45829   0.72945
Si         Si      0.27769   0.17404   0.60491
Si         Si      0.67278   0.39509   0.56913
Si         Si      0.10365   0.43087   0.82596
Si         Si      0.67278   0.56913   0.39509
Si         Si      0.27769   0.60491   0.17404
Si         Si      0.10365   0.82596   0.43087
Si         Si      0.56913   0.67278   0.39509
Si         Si      0.82596   0.10365   0.43087
Si         Si      0.60491   0.27769   0.17404
Si         Si      0.17404   0.27769   0.60491
Si         Si      0.43087   0.10365   0.82596
Si         Si      0.39509   0.67278   0.56913
Si         Si      0.43087   0.82596   0.10365
Si         Si      0.17404   0.60491   0.27769
Si         Si      0.39509   0.56913   0.67278
Si         Si      0.82596   0.43087   0.10365
Si         Si      0.56913   0.39509   0.67278
Si         Si      0.60491   0.17404   0.27769
Si         Si      0.72231   0.32722   0.89635
Si         Si      0.32722   0.89635   0.72231
Si         Si      0.89635   0.72231   0.32722
Si         Si      0.32722   0.72231   0.89635
Si         Si      0.72231   0.89635   0.32722
Si         Si      0.89635   0.32722   0.72231
Si         Si      0.72231   0.82596   0.39509
Si         Si      0.32722   0.60491   0.43087
Si         Si      0.89635   0.56913   0.17404
Si         Si      0.32722   0.43087   0.60491
Si         Si      0.72231   0.39509   0.82596
Si         Si      0.89635   0.17404   0.56913
Si         Si      0.43087   0.32722   0.60491
Si         Si      0.17404   0.89635   0.56913
Si         Si      0.39509   0.72231   0.82596
Si         Si      0.82596   0.72231   0.39509
Si         Si      0.56913   0.89635   0.17404
Si         Si      0.60491   0.32722   0.43087
Si         Si      0.56913   0.17404   0.89635
Si         Si      0.82596   0.39509   0.72231
Si         Si      0.60491   0.43087   0.32722
Si         Si      0.17404   0.56913   0.89635
Si         Si      0.43087   0.60491   0.32722
Si         Si      0.39509   0.82596   0.72231
Si         Si      0.27769   0.67278   0.10365
Si         Si      0.67278   0.10365   0.27769
Si         Si      0.10365   0.27769   0.67278
Si         Si      0.67278   0.27769   0.10365
Si         Si      0.27769   0.10365   0.67278
Si         Si      0.10365   0.67278   0.27769
Si         Si      0.10424   0.60424   0.20848
Si         Si      0.89576   0.79152   0.39576
Si         Si      0.50000   0.60424   0.39576
Si         Si      0.89576   0.39576   0.79152
Si         Si      0.10424   0.20848   0.60424
Si         Si      0.50000   0.39576   0.60424
Si         Si      0.39576   0.89576   0.79152
Si         Si      0.39576   0.50000   0.60424
Si         Si      0.20848   0.10424   0.60424
Si         Si      0.60424   0.10424   0.20848
Si         Si      0.60424   0.50000   0.39576
Si         Si      0.79152   0.89576   0.39576
Si         Si      0.60424   0.39576   0.50000
Si         Si      0.60424   0.20848   0.10424
Si         Si      0.79152   0.39576   0.89576
Si         Si      0.39576   0.60424   0.50000
Si         Si      0.39576   0.79152   0.89576
Si         Si      0.20848   0.60424   0.10424
Si         Si      0.89576   0.10424   0.50000
Si         Si      0.10424   0.50000   0.89576
Si         Si      0.50000   0.89576   0.10424
Si         Si      0.10424   0.89576   0.50000
Si         Si      0.89576   0.50000   0.10424
Si         Si      0.50000   0.10424   0.89576
Si         Si      0.17343   0.67343   0.34686
Si         Si      0.82657   0.65314   0.32657
Si         Si      0.50000   0.67343   0.32657
Si         Si      0.82657   0.32657   0.65314
Si         Si      0.17343   0.34686   0.67343
Si         Si      0.50000   0.32657   0.67343
Si         Si      0.32657   0.82657   0.65314
Si         Si      0.32657   0.50000   0.67343
Si         Si      0.34686   0.17343   0.67343
Si         Si      0.67343   0.17343   0.34686
Si         Si      0.67343   0.50000   0.32657
Si         Si      0.65314   0.82657   0.32657
Si         Si      0.67343   0.32657   0.50000
Si         Si      0.67343   0.34686   0.17343
Si         Si      0.65314   0.32657   0.82657
Si         Si      0.32657   0.67343   0.50000
Si         Si      0.32657   0.65314   0.82657
Si         Si      0.34686   0.67343   0.17343
Si         Si      0.82657   0.17343   0.50000
Si         Si      0.17343   0.50000   0.82657
Si         Si      0.50000   0.82657   0.17343
Si         Si      0.17343   0.82657   0.50000
Si         Si      0.82657   0.50000   0.17343
Si         Si      0.50000   0.17343   0.82657
