data_crystal

_cell_length_a    30.17059
_cell_length_b    30.17059
_cell_length_c    30.17059
_cell_angle_alpha 109.47122
_cell_angle_beta  109.47122
_cell_angle_gamma 109.47122

_space_group_name_Hall 'P 1'
_space_group_name_H-M_alt 'P 1'

loop_
_symmetry_equiv_pos_as_xyz
 'x,y,z'

loop_
_atom_site_label
_atom_site_type_symbol
_atom_site_fract_x
_atom_site_fract_y
_atom_site_fract_z
O          O       0.54500   0.16370   0.09590
O          O       0.44910   0.90410   0.06780
O          O       0.38130   0.93220   0.83630
O          O       0.54500   0.44910   0.38130
O          O       0.44910   0.38130   0.54500
O          O       0.38130   0.54500   0.44910
O          O       0.93220   0.55090   0.09590
O          O       0.16370   0.61870   0.06780
O          O       0.90410   0.45500   0.83630
O          O       0.93220   0.83630   0.38130
O          O       0.16370   0.09590   0.54500
O          O       0.90410   0.06780   0.44910
O          O       0.54500   0.09590   0.16370
O          O       0.44910   0.06780   0.90410
O          O       0.38130   0.83630   0.93220
O          O       0.54500   0.38130   0.44910
O          O       0.44910   0.54500   0.38130
O          O       0.38130   0.44910   0.54500
O          O       0.93220   0.09590   0.55090
O          O       0.16370   0.06780   0.61870
O          O       0.90410   0.83630   0.45500
O          O       0.93220   0.38130   0.83630
O          O       0.16370   0.54500   0.09590
O          O       0.90410   0.44910   0.06780
O          O       0.45500   0.83630   0.90410
O          O       0.55090   0.09590   0.93220
O          O       0.61870   0.06780   0.16370
O          O       0.45500   0.55090   0.61870
O          O       0.55090   0.61870   0.45500
O          O       0.61870   0.45500   0.55090
O          O       0.06780   0.44910   0.90410
O          O       0.83630   0.38130   0.93220
O          O       0.09590   0.54500   0.16370
O          O       0.06780   0.16370   0.61870
O          O       0.83630   0.90410   0.45500
O          O       0.09590   0.93220   0.55090
O          O       0.45500   0.90410   0.83630
O          O       0.55090   0.93220   0.09590
O          O       0.61870   0.16370   0.06780
O          O       0.45500   0.61870   0.55090
O          O       0.55090   0.45500   0.61870
O          O       0.61870   0.55090   0.45500
O          O       0.06780   0.90410   0.44910
O          O       0.83630   0.93220   0.38130
O          O       0.09590   0.16370   0.54500
O          O       0.06780   0.61870   0.16370
O          O       0.83630   0.45500   0.90410
O          O       0.09590   0.55090   0.93220
O          O       0.51700   0.23110   0.14330
O          O       0.37370   0.85670   0.08780
O          O       0.28590   0.91220   0.76890
O          O       0.51700   0.37370   0.28590
O          O       0.37370   0.28590   0.51700
O          O       0.28590   0.51700   0.37370
O          O       0.91220   0.62630   0.14330
O          O       0.23110   0.71410   0.08780
O          O       0.85670   0.48300   0.76890
O          O       0.91220   0.76890   0.28590
O          O       0.23110   0.14330   0.51700
O          O       0.85670   0.08780   0.37370
O          O       0.51700   0.14330   0.23110
O          O       0.37370   0.08780   0.85670
O          O       0.28590   0.76890   0.91220
O          O       0.51700   0.28590   0.37370
O          O       0.37370   0.51700   0.28590
O          O       0.28590   0.37370   0.51700
O          O       0.91220   0.14330   0.62630
O          O       0.23110   0.08780   0.71410
O          O       0.85670   0.76890   0.48300
O          O       0.91220   0.28590   0.76890
O          O       0.23110   0.51700   0.14330
O          O       0.85670   0.37370   0.08780
O          O       0.48300   0.76890   0.85670
O          O       0.62630   0.14330   0.91220
O          O       0.71410   0.08780   0.23110
O          O       0.48300   0.62630   0.71410
O          O       0.62630   0.71410   0.48300
O          O       0.71410   0.48300   0.62630
O          O       0.08780   0.37370   0.85670
O          O       0.76890   0.28590   0.91220
O          O       0.14330   0.51700   0.23110
O          O       0.08780   0.23110   0.71410
O          O       0.76890   0.85670   0.48300
O          O       0.14330   0.91220   0.62630
O          O       0.48300   0.85670   0.76890
O          O       0.62630   0.91220   0.14330
O          O       0.71410   0.23110   0.08780
O          O       0.48300   0.71410   0.62630
O          O       0.62630   0.48300   0.71410
O          O       0.71410   0.62630   0.48300
O          O       0.08780   0.85670   0.37370
O          O       0.76890   0.91220   0.28590
O          O       0.14330   0.23110   0.51700
O          O       0.08780   0.71410   0.23110
O          O       0.76890   0.48300   0.85670
O          O       0.14330   0.62630   0.91220
O          O       0.61930   0.26540   0.16990
O          O       0.44940   0.83010   0.09550
O          O       0.35390   0.90450   0.73460
O          O       0.61930   0.44940   0.35390
O          O       0.44940   0.35390   0.61930
O          O       0.35390   0.61930   0.44940
O          O       0.90450   0.55060   0.16990
O          O       0.26540   0.64610   0.09550
O          O       0.83010   0.38070   0.73460
O          O       0.90450   0.73460   0.35390
O          O       0.26540   0.16990   0.61930
O          O       0.83010   0.09550   0.44940
O          O       0.61930   0.16990   0.26540
O          O       0.44940   0.09550   0.83010
O          O       0.35390   0.73460   0.90450
O          O       0.61930   0.35390   0.44940
O          O       0.44940   0.61930   0.35390
O          O       0.35390   0.44940   0.61930
O          O       0.90450   0.16990   0.55060
O          O       0.26540   0.09550   0.64610
O          O       0.83010   0.73460   0.38070
O          O       0.90450   0.35390   0.73460
O          O       0.26540   0.61930   0.16990
O          O       0.83010   0.44940   0.09550
O          O       0.38070   0.73460   0.83010
O          O       0.55060   0.16990   0.90450
O          O       0.64610   0.09550   0.26540
O          O       0.38070   0.55060   0.64610
O          O       0.55060   0.64610   0.38070
O          O       0.64610   0.38070   0.55060
O          O       0.09550   0.44940   0.83010
O          O       0.73460   0.35390   0.90450
O          O       0.16990   0.61930   0.26540
O          O       0.09550   0.26540   0.64610
O          O       0.73460   0.83010   0.38070
O          O       0.16990   0.90450   0.55060
O          O       0.38070   0.83010   0.73460
O          O       0.55060   0.90450   0.16990
O          O       0.64610   0.26540   0.09550
O          O       0.38070   0.64610   0.55060
O          O       0.55060   0.38070   0.64610
O          O       0.64610   0.55060   0.38070
O          O       0.09550   0.83010   0.44940
O          O       0.73460   0.90450   0.35390
O          O       0.16990   0.26540   0.61930
O          O       0.09550   0.64610   0.26540
O          O       0.73460   0.38070   0.83010
O          O       0.16990   0.55060   0.90450
O          O       0.57260   0.19850   0.19850
O          O       0.37410   0.80150   0.00000
O          O       0.37410   1.00000   0.80150
O          O       0.57260   0.37410   0.37410
O          O       0.37410   0.37410   0.57260
O          O       0.37410   0.57260   0.37410
O          O       0.00000   0.62590   0.19850
O          O       0.19850   0.62590   0.00000
O          O       0.80150   0.42740   0.80150
O          O       0.00000   0.80150   0.37410
O          O       0.19850   0.19850   0.57260
O          O       0.80150   0.00000   0.37410
O          O       0.00000   0.19850   0.62590
O          O       0.19850   1.00000   0.62590
O          O       0.80150   0.80150   0.42740
O          O       0.00000   0.37410   0.80150
O          O       0.19850   0.57260   0.19850
O          O       0.80150   0.37410   0.00000
O          O       0.42740   0.80150   0.80150
O          O       0.62590   0.19850   0.00000
O          O       0.62590   0.00000   0.19850
O          O       0.42740   0.62590   0.62590
O          O       0.62590   0.62590   0.42740
O          O       0.62590   0.42740   0.62590
O          O       0.62000   0.44880   0.06880
O          O       0.55120   0.93120   0.38000
O          O       0.17120   0.62000   0.55120
O          O       0.62000   0.55120   0.17120
O          O       0.55120   0.17120   0.62000
O          O       0.44880   0.82880   0.38000
O          O       0.93120   0.38000   0.55120
O          O       0.44880   0.06880   0.62000
O          O       0.62000   0.06880   0.44880
O          O       0.55120   0.38000   0.93120
O          O       0.17120   0.55120   0.62000
O          O       0.62000   0.17120   0.55120
O          O       0.55120   0.62000   0.17120
O          O       0.44880   0.38000   0.82880
O          O       0.93120   0.55120   0.38000
O          O       0.44880   0.62000   0.06880
O          O       0.38000   0.55120   0.93120
O          O       0.82880   0.38000   0.44880
O          O       0.38000   0.44880   0.82880
O          O       0.06880   0.62000   0.44880
O          O       0.38000   0.93120   0.55120
O          O       0.82880   0.44880   0.38000
O          O       0.38000   0.82880   0.44880
O          O       0.06880   0.44880   0.62000
O          O       0.51690   0.37590   0.00000
O          O       0.51690   0.00000   0.37590
O          O       0.14100   0.62410   0.62410
O          O       0.51690   0.51690   0.14100
O          O       0.51690   0.14100   0.51690
O          O       0.14100   0.51690   0.51690
O          O       0.62410   0.48310   1.00000
O          O       0.37590   0.85900   0.37590
O          O       0.00000   0.48310   0.62410
O          O       0.62410   0.62410   0.14100
O          O       0.37590   0.00000   0.51690
O          O       0.00000   0.37590   0.51690
O          O       0.62410   0.00000   0.48310
O          O       0.37590   0.37590   0.85900
O          O       0.00000   0.62410   0.48310
O          O       0.62410   0.14100   0.62410
O          O       0.37590   0.51690   0.00000
O          O       0.00000   0.51690   0.37590
O          O       0.48310   0.62410   1.00000
O          O       0.48310   0.00000   0.62410
O          O       0.85900   0.37590   0.37590
O          O       0.48310   0.48310   0.85900
O          O       0.48310   0.85900   0.48310
O          O       0.85900   0.48310   0.48310
O          O       0.54650   0.44970   0.09680
O          O       0.44970   0.90320   0.35290
O          O       0.09680   0.64710   0.55030
O          O       0.44970   0.09680   0.54650
O          O       0.09680   0.54650   0.44970
O          O       0.64710   0.55030   0.09680
O          O       0.90320   0.45350   0.55030
O          O       0.90320   0.35290   0.44970
O          O       0.54650   0.09680   0.44970
O          O       0.44970   0.35290   0.90320
O          O       0.09680   0.55030   0.64710
O          O       0.44970   0.54650   0.09680
O          O       0.09680   0.44970   0.54650
O          O       0.64710   0.09680   0.55030
O          O       0.90320   0.55030   0.45350
O          O       0.90320   0.44970   0.35290
O          O       0.45350   0.55030   0.90320
O          O       0.55030   0.09680   0.64710
O          O       0.55030   0.90320   0.45350
O          O       0.35290   0.44970   0.90320
O          O       0.45350   0.90320   0.55030
O          O       0.55030   0.64710   0.09680
O          O       0.55030   0.45350   0.90320
O          O       0.35290   0.90320   0.44970
O          O       0.57020   0.37180   0.08600
O          O       0.48420   0.91400   0.28580
O          O       0.19840   0.71420   0.62820
O          O       0.57020   0.48420   0.19840
O          O       0.48420   0.19840   0.57020
O          O       0.19840   0.57020   0.48420
O          O       0.71420   0.51580   0.08600
O          O       0.37180   0.80160   0.28580
O          O       0.91400   0.42980   0.62820
O          O       0.71420   0.62820   0.19840
O          O       0.37180   0.08600   0.57020
O          O       0.91400   0.28580   0.48420
O          O       0.57020   0.08600   0.37180
O          O       0.48420   0.28580   0.91400
O          O       0.19840   0.62820   0.71420
O          O       0.57020   0.19840   0.48420
O          O       0.48420   0.57020   0.19840
O          O       0.19840   0.48420   0.57020
O          O       0.71420   0.08600   0.51580
O          O       0.37180   0.28580   0.80160
O          O       0.91400   0.62820   0.42980
O          O       0.71420   0.19840   0.62820
O          O       0.37180   0.57020   0.08600
O          O       0.91400   0.48420   0.28580
O          O       0.42980   0.62820   0.91400
O          O       0.51580   0.08600   0.71420
O          O       0.80160   0.28580   0.37180
O          O       0.42980   0.51580   0.80160
O          O       0.51580   0.80160   0.42980
O          O       0.80160   0.42980   0.51580
O          O       0.28580   0.48420   0.91400
O          O       0.62820   0.19840   0.71420
O          O       0.08600   0.57020   0.37180
O          O       0.28580   0.37180   0.80160
O          O       0.62820   0.91400   0.42980
O          O       0.08600   0.71420   0.51580
O          O       0.42980   0.91400   0.62820
O          O       0.51580   0.71420   0.08600
O          O       0.80160   0.37180   0.28580
O          O       0.42980   0.80160   0.51580
O          O       0.51580   0.42980   0.80160
O          O       0.80160   0.51580   0.42980
O          O       0.28580   0.91400   0.48420
O          O       0.62820   0.71420   0.19840
O          O       0.08600   0.37180   0.57020
O          O       0.28580   0.80160   0.37180
O          O       0.62820   0.42980   0.91400
O          O       0.08600   0.51580   0.71420
O          O       0.52400   0.30710   0.11710
O          O       0.40690   0.88290   0.19000
O          O       0.21690   0.81000   0.69290
O          O       0.52400   0.40690   0.21690
O          O       0.40690   0.21690   0.52400
O          O       0.21690   0.52400   0.40690
O          O       0.81000   0.59310   0.11710
O          O       0.30710   0.78310   0.19000
O          O       0.88290   0.47600   0.69290
O          O       0.81000   0.69290   0.21690
O          O       0.30710   0.11710   0.52400
O          O       0.88290   0.19000   0.40690
O          O       0.52400   0.11710   0.30710
O          O       0.40690   0.19000   0.88290
O          O       0.21690   0.69290   0.81000
O          O       0.52400   0.21690   0.40690
O          O       0.40690   0.52400   0.21690
O          O       0.21690   0.40690   0.52400
O          O       0.81000   0.11710   0.59310
O          O       0.30710   0.19000   0.78310
O          O       0.88290   0.69290   0.47600
O          O       0.81000   0.21690   0.69290
O          O       0.30710   0.52400   0.11710
O          O       0.88290   0.40690   0.19000
O          O       0.47600   0.69290   0.88290
O          O       0.59310   0.11710   0.81000
O          O       0.78310   0.19000   0.30710
O          O       0.47600   0.59310   0.78310
O          O       0.59310   0.78310   0.47600
O          O       0.78310   0.47600   0.59310
O          O       0.19000   0.40690   0.88290
O          O       0.69290   0.21690   0.81000
O          O       0.11710   0.52400   0.30710
O          O       0.19000   0.30710   0.78310
O          O       0.69290   0.88290   0.47600
O          O       0.11710   0.81000   0.59310
O          O       0.47600   0.88290   0.69290
O          O       0.59310   0.81000   0.11710
O          O       0.78310   0.30710   0.19000
O          O       0.47600   0.78310   0.59310
O          O       0.59310   0.47600   0.78310
O          O       0.78310   0.59310   0.47600
O          O       0.19000   0.88290   0.40690
O          O       0.69290   0.81000   0.21690
O          O       0.11710   0.30710   0.52400
O          O       0.19000   0.78310   0.30710
O          O       0.69290   0.47600   0.88290
O          O       0.11710   0.59310   0.81000
O          O       0.59810   0.40920   0.18890
O          O       0.40920   0.81110   0.22030
O          O       0.18890   0.77970   0.59080
O          O       0.40920   0.18890   0.59810
O          O       0.18890   0.59810   0.40920
O          O       0.77970   0.59080   0.18890
O          O       0.81110   0.40190   0.59080
O          O       0.81110   0.22030   0.40920
O          O       0.59810   0.18890   0.40920
O          O       0.40920   0.22030   0.81110
O          O       0.18890   0.59080   0.77970
O          O       0.40920   0.59810   0.18890
O          O       0.18890   0.40920   0.59810
O          O       0.77970   0.18890   0.59080
O          O       0.81110   0.59080   0.40190
O          O       0.81110   0.40920   0.22030
O          O       0.40190   0.59080   0.81110
O          O       0.59080   0.18890   0.77970
O          O       0.59080   0.81110   0.40190
O          O       0.22030   0.40920   0.81110
O          O       0.40190   0.81110   0.59080
O          O       0.59080   0.77970   0.18890
O          O       0.59080   0.40190   0.81110
O          O       0.22030   0.81110   0.40920
O          O       0.62630   0.34090   0.14320
O          O       0.48310   0.85680   0.19770
O          O       0.28540   0.80230   0.65910
O          O       0.62630   0.48310   0.28540
O          O       0.48310   0.28540   0.62630
O          O       0.28540   0.62630   0.48310
O          O       0.80230   0.51690   0.14320
O          O       0.34090   0.71460   0.19770
O          O       0.85680   0.37370   0.65910
O          O       0.80230   0.65910   0.28540
O          O       0.34090   0.14320   0.62630
O          O       0.85680   0.19770   0.48310
O          O       0.62630   0.14320   0.34090
O          O       0.48310   0.19770   0.85680
O          O       0.28540   0.65910   0.80230
O          O       0.62630   0.28540   0.48310
O          O       0.48310   0.62630   0.28540
O          O       0.28540   0.48310   0.62630
O          O       0.80230   0.14320   0.51690
O          O       0.34090   0.19770   0.71460
O          O       0.85680   0.65910   0.37370
O          O       0.80230   0.28540   0.65910
O          O       0.34090   0.62630   0.14320
O          O       0.85680   0.48310   0.19770
O          O       0.37370   0.65910   0.85680
O          O       0.51690   0.14320   0.80230
O          O       0.71460   0.19770   0.34090
O          O       0.37370   0.51690   0.71460
O          O       0.51690   0.71460   0.37370
O          O       0.71460   0.37370   0.51690
O          O       0.19770   0.48310   0.85680
O          O       0.65910   0.28540   0.80230
O          O       0.14320   0.62630   0.34090
O          O       0.19770   0.34090   0.71460
O          O       0.65910   0.85680   0.37370
O          O       0.14320   0.80230   0.51690
O          O       0.37370   0.85680   0.65910
O          O       0.51690   0.80230   0.14320
O          O       0.71460   0.34090   0.19770
O          O       0.37370   0.71460   0.51690
O          O       0.51690   0.37370   0.71460
O          O       0.71460   0.51690   0.37370
O          O       0.19770   0.85680   0.48310
O          O       0.65910   0.80230   0.28540
O          O       0.14320   0.34090   0.62630
O          O       0.19770   0.71460   0.34090
O          O       0.65910   0.37370   0.85680
O          O       0.14320   0.51690   0.80230
O          O       0.42850   0.22990   0.08700
O          O       0.34150   0.91300   0.14290
O          O       0.19860   0.85710   0.77010
O          O       0.42850   0.34150   0.19860
O          O       0.34150   0.19860   0.42850
O          O       0.19860   0.42850   0.34150
O          O       0.85710   0.65850   0.08700
O          O       0.22990   0.80140   0.14290
O          O       0.91300   0.57150   0.77010
O          O       0.85710   0.77010   0.19860
O          O       0.22990   0.08700   0.42850
O          O       0.91300   0.14290   0.34150
O          O       0.42850   0.08700   0.22990
O          O       0.34150   0.14290   0.91300
O          O       0.19860   0.77010   0.85710
O          O       0.42850   0.19860   0.34150
O          O       0.34150   0.42850   0.19860
O          O       0.19860   0.34150   0.42850
O          O       0.85710   0.08700   0.65850
O          O       0.22990   0.14290   0.80140
O          O       0.91300   0.77010   0.57150
O          O       0.85710   0.19860   0.77010
O          O       0.22990   0.42850   0.08700
O          O       0.91300   0.34150   0.14290
O          O       0.57150   0.77010   0.91300
O          O       0.65850   0.08700   0.85710
O          O       0.80140   0.14290   0.22990
O          O       0.57150   0.65850   0.80140
O          O       0.65850   0.80140   0.57150
O          O       0.80140   0.57150   0.65850
O          O       0.14290   0.34150   0.91300
O          O       0.77010   0.19860   0.85710
O          O       0.08700   0.42850   0.22990
O          O       0.14290   0.22990   0.80140
O          O       0.77010   0.91300   0.57150
O          O       0.08700   0.85710   0.65850
O          O       0.57150   0.91300   0.77010
O          O       0.65850   0.85710   0.08700
O          O       0.80140   0.22990   0.14290
O          O       0.57150   0.80140   0.65850
O          O       0.65850   0.57150   0.80140
O          O       0.80140   0.65850   0.57150
O          O       0.14290   0.91300   0.34150
O          O       0.77010   0.85710   0.19860
O          O       0.08700   0.22990   0.42850
O          O       0.14290   0.80140   0.22990
O          O       0.77010   0.57150   0.91300
O          O       0.08700   0.65850   0.85710
O          O       0.49500   0.30520   0.18980
O          O       0.30520   0.81020   0.11540
O          O       0.18980   0.88460   0.69480
O          O       0.30520   0.18980   0.49500
O          O       0.18980   0.49500   0.30520
O          O       0.88460   0.69480   0.18980
O          O       0.81020   0.50500   0.69480
O          O       0.81020   0.11540   0.30520
O          O       0.49500   0.18980   0.30520
O          O       0.30520   0.11540   0.81020
O          O       0.18980   0.69480   0.88460
O          O       0.30520   0.49500   0.18980
O          O       0.18980   0.30520   0.49500
O          O       0.88460   0.18980   0.69480
O          O       0.81020   0.69480   0.50500
O          O       0.81020   0.30520   0.11540
O          O       0.50500   0.69480   0.81020
O          O       0.69480   0.18980   0.88460
O          O       0.69480   0.81020   0.50500
O          O       0.11540   0.30520   0.81020
O          O       0.50500   0.81020   0.69480
O          O       0.69480   0.88460   0.18980
O          O       0.69480   0.50500   0.81020
O          O       0.11540   0.81020   0.30520
O          O       0.33310   0.16330   0.06800
O          O       0.26510   0.93200   0.09530
O          O       0.16980   0.90470   0.83670
O          O       0.33310   0.26510   0.16980
O          O       0.26510   0.16980   0.33310
O          O       0.16980   0.33310   0.26510
O          O       0.90470   0.73490   0.06800
O          O       0.16330   0.83020   0.09530
O          O       0.93200   0.66690   0.83670
O          O       0.90470   0.83670   0.16980
O          O       0.16330   0.06800   0.33310
O          O       0.93200   0.09530   0.26510
O          O       0.33310   0.06800   0.16330
O          O       0.26510   0.09530   0.93200
O          O       0.16980   0.83670   0.90470
O          O       0.33310   0.16980   0.26510
O          O       0.26510   0.33310   0.16980
O          O       0.16980   0.26510   0.33310
O          O       0.90470   0.06800   0.73490
O          O       0.16330   0.09530   0.83020
O          O       0.93200   0.83670   0.66690
O          O       0.90470   0.16980   0.83670
O          O       0.16330   0.33310   0.06800
O          O       0.93200   0.26510   0.09530
O          O       0.66690   0.83670   0.93200
O          O       0.73490   0.06800   0.90470
O          O       0.83020   0.09530   0.16330
O          O       0.66690   0.73490   0.83020
O          O       0.73490   0.83020   0.66690
O          O       0.83020   0.66690   0.73490
O          O       0.09530   0.26510   0.93200
O          O       0.83670   0.16980   0.90470
O          O       0.06800   0.33310   0.16330
O          O       0.09530   0.16330   0.83020
O          O       0.83670   0.93200   0.66690
O          O       0.06800   0.90470   0.73490
O          O       0.66690   0.93200   0.83670
O          O       0.73490   0.90470   0.06800
O          O       0.83020   0.16330   0.09530
O          O       0.66690   0.83020   0.73490
O          O       0.73490   0.66690   0.83020
O          O       0.83020   0.73490   0.66690
O          O       0.09530   0.93200   0.26510
O          O       0.83670   0.90470   0.16980
O          O       0.06800   0.16330   0.33310
O          O       0.09530   0.83020   0.16330
O          O       0.83670   0.66690   0.93200
O          O       0.06800   0.73490   0.90470
O          O       0.36140   0.26510   0.09630
O          O       0.26510   0.90370   0.16880
O          O       0.09630   0.83120   0.73490
O          O       0.26510   0.09630   0.36140
O          O       0.09630   0.36140   0.26510
O          O       0.83120   0.73490   0.09630
O          O       0.90370   0.63860   0.73490
O          O       0.90370   0.16880   0.26510
O          O       0.36140   0.09630   0.26510
O          O       0.26510   0.16880   0.90370
O          O       0.09630   0.73490   0.83120
O          O       0.26510   0.36140   0.09630
O          O       0.09630   0.26510   0.36140
O          O       0.83120   0.09630   0.73490
O          O       0.90370   0.73490   0.63860
O          O       0.90370   0.26510   0.16880
O          O       0.63860   0.73490   0.90370
O          O       0.73490   0.09630   0.83120
O          O       0.73490   0.90370   0.63860
O          O       0.16880   0.26510   0.90370
O          O       0.63860   0.90370   0.73490
O          O       0.73490   0.83120   0.09630
O          O       0.73490   0.63860   0.90370
O          O       0.16880   0.90370   0.26510
O          O       0.33970   0.19810   0.00000
O          O       0.33970   0.00000   0.19810
O          O       0.14160   0.80190   0.80190
O          O       0.33970   0.33970   0.14160
O          O       0.33970   0.14160   0.33970
O          O       0.14160   0.33970   0.33970
O          O       0.80190   0.66030   0.00000
O          O       0.19810   0.85840   0.19810
O          O       0.00000   0.66030   0.80190
O          O       0.80190   0.80190   0.14160
O          O       0.19810   0.00000   0.33970
O          O       0.00000   0.19810   0.33970
O          O       0.80190   0.00000   0.66030
O          O       0.19810   0.19810   0.85840
O          O       0.00000   0.80190   0.66030
O          O       0.80190   0.14160   0.80190
O          O       0.19810   0.33970   0.00000
O          O       0.00000   0.33970   0.19810
O          O       0.66030   0.80190   0.00000
O          O       0.66030   0.00000   0.80190
O          O       0.85840   0.19810   0.19810
O          O       0.66030   0.66030   0.85840
O          O       0.66030   0.85840   0.66030
O          O       0.85840   0.66030   0.66030
O          O       0.25980   0.16320   0.09660
O          O       0.16320   0.90340   0.06660
O          O       0.09660   0.93340   0.83680
O          O       0.16320   0.09660   0.25980
O          O       0.09660   0.25980   0.16320
O          O       0.93340   0.83680   0.09660
O          O       0.90340   0.74020   0.83680
O          O       0.90340   0.06660   0.16320
O          O       0.25980   0.09660   0.16320
O          O       0.16320   0.06660   0.90340
O          O       0.09660   0.83680   0.93340
O          O       0.16320   0.25980   0.09660
O          O       0.09660   0.16320   0.25980
O          O       0.93340   0.09660   0.83680
O          O       0.90340   0.83680   0.74020
O          O       0.90340   0.16320   0.06660
O          O       0.74020   0.83680   0.90340
O          O       0.83680   0.09660   0.93340
O          O       0.83680   0.90340   0.74020
O          O       0.06660   0.16320   0.90340
O          O       0.74020   0.90340   0.83680
O          O       0.83680   0.93340   0.09660
O          O       0.83680   0.74020   0.90340
O          O       0.06660   0.90340   0.16320
O          O       0.23030   0.08870   0.00000
O          O       0.23030   0.00000   0.08870
O          O       0.14160   0.91130   0.91130
O          O       0.23030   0.23030   0.14160
O          O       0.23030   0.14160   0.23030
O          O       0.14160   0.23030   0.23030
O          O       0.91130   0.76970   0.00000
O          O       0.08870   0.85840   0.08870
O          O       0.00000   0.76970   0.91130
O          O       0.91130   0.91130   0.14160
O          O       0.08870   0.00000   0.23030
O          O       0.00000   0.08870   0.23030
O          O       0.91130   0.00000   0.76970
O          O       0.08870   0.08870   0.85840
O          O       0.00000   0.91130   0.76970
O          O       0.91130   0.14160   0.91130
O          O       0.08870   0.23030   0.00000
O          O       0.00000   0.23030   0.08870
O          O       0.76970   0.91130   0.00000
O          O       0.76970   0.00000   0.91130
O          O       0.85840   0.08870   0.08870
O          O       0.76970   0.76970   0.85840
O          O       0.76970   0.85840   0.76970
O          O       0.85840   0.76970   0.76970
O          O       0.28580   0.08690   0.08690
O          O       0.19890   0.91310   1.00000
O          O       0.19890   0.00000   0.91310
O          O       0.28580   0.19890   0.19890
O          O       0.19890   0.19890   0.28580
O          O       0.19890   0.28580   0.19890
O          O       0.00000   0.80110   0.08690
O          O       0.08690   0.80110   0.00000
O          O       0.91310   0.71420   0.91310
O          O       0.00000   0.91310   0.19890
O          O       0.08690   0.08690   0.28580
O          O       0.91310   0.00000   0.19890
O          O       0.00000   0.08690   0.80110
O          O       0.08690   0.00000   0.80110
O          O       0.91310   0.91310   0.71420
O          O       0.00000   0.19890   0.91310
O          O       0.08690   0.28580   0.08690
O          O       0.91310   0.19890   1.00000
O          O       0.71420   0.91310   0.91310
O          O       0.80110   0.08690   0.00000
O          O       0.80110   0.00000   0.08690
O          O       0.71420   0.80110   0.80110
O          O       0.80110   0.80110   0.71420
O          O       0.80110   0.71420   0.80110
O          O       0.51620   0.08820   0.00000
O          O       0.51620   0.00000   0.08820
O          O       0.42800   0.91180   0.91180
O          O       0.51620   0.51620   0.42800
O          O       0.51620   0.42800   0.51620
O          O       0.42800   0.51620   0.51620
O          O       0.91180   0.48380   1.00000
O          O       0.08820   0.57200   0.08820
O          O       0.00000   0.48380   0.91180
O          O       0.91180   0.91180   0.42800
O          O       0.08820   1.00000   0.51620
O          O       0.00000   0.08820   0.51620
O          O       0.91180   0.00000   0.48380
O          O       0.08820   0.08820   0.57200
O          O       0.00000   0.91180   0.48380
O          O       0.91180   0.42800   0.91180
O          O       0.08820   0.51620   0.00000
O          O       0.00000   0.51620   0.08820
O          O       0.48380   0.91180   0.00000
O          O       0.48380   0.00000   0.91180
O          O       0.57200   0.08820   0.08820
O          O       0.48380   0.48380   0.57200
O          O       0.48380   0.57200   0.48380
O          O       0.57200   0.48380   0.48380
Si         Si      0.56340   0.21460   0.15180
Si         Si      0.41160   0.84820   0.06280
Si         Si      0.34880   0.93720   0.78540
Si         Si      0.56340   0.41160   0.34880
Si         Si      0.41160   0.34880   0.56340
Si         Si      0.34880   0.56340   0.41160
Si         Si      0.93720   0.58840   0.15180
Si         Si      0.21460   0.65120   0.06280
Si         Si      0.84820   0.43660   0.78540
Si         Si      0.93720   0.78540   0.34880
Si         Si      0.21460   0.15180   0.56340
Si         Si      0.84820   0.06280   0.41160
Si         Si      0.56340   0.15180   0.21460
Si         Si      0.41160   0.06280   0.84820
Si         Si      0.34880   0.78540   0.93720
Si         Si      0.56340   0.34880   0.41160
Si         Si      0.41160   0.56340   0.34880
Si         Si      0.34880   0.41160   0.56340
Si         Si      0.93720   0.15180   0.58840
Si         Si      0.21460   0.06280   0.65120
Si         Si      0.84820   0.78540   0.43660
Si         Si      0.93720   0.34880   0.78540
Si         Si      0.21460   0.56340   0.15180
Si         Si      0.84820   0.41160   0.06280
Si         Si      0.43660   0.78540   0.84820
Si         Si      0.58840   0.15180   0.93720
Si         Si      0.65120   0.06280   0.21460
Si         Si      0.43660   0.58840   0.65120
Si         Si      0.58840   0.65120   0.43660
Si         Si      0.65120   0.43660   0.58840
Si         Si      0.06280   0.41160   0.84820
Si         Si      0.78540   0.34880   0.93720
Si         Si      0.15180   0.56340   0.21460
Si         Si      0.06280   0.21460   0.65120
Si         Si      0.78540   0.84820   0.43660
Si         Si      0.15180   0.93720   0.58840
Si         Si      0.43660   0.84820   0.78540
Si         Si      0.58840   0.93720   0.15180
Si         Si      0.65120   0.21460   0.06280
Si         Si      0.43660   0.65120   0.58840
Si         Si      0.58840   0.43660   0.65120
Si         Si      0.65120   0.58840   0.43660
Si         Si      0.06280   0.84820   0.41160
Si         Si      0.78540   0.93720   0.34880
Si         Si      0.15180   0.21460   0.56340
Si         Si      0.06280   0.65120   0.21460
Si         Si      0.78540   0.43660   0.84820
Si         Si      0.15180   0.58840   0.93720
Si         Si      0.56360   0.41160   0.06300
Si         Si      0.50060   0.93700   0.34860
Si         Si      0.15200   0.65140   0.58840
Si         Si      0.56360   0.50060   0.15200
Si         Si      0.50060   0.15200   0.56360
Si         Si      0.15200   0.56360   0.50060
Si         Si      0.65140   0.49940   0.06300
Si         Si      0.41160   0.84800   0.34860
Si         Si      0.93700   0.43640   0.58840
Si         Si      0.65140   0.58840   0.15200
Si         Si      0.41160   0.06300   0.56360
Si         Si      0.93700   0.34860   0.50060
Si         Si      0.56360   0.06300   0.41160
Si         Si      0.50060   0.34860   0.93700
Si         Si      0.15200   0.58840   0.65140
Si         Si      0.56360   0.15200   0.50060
Si         Si      0.50060   0.56360   0.15200
Si         Si      0.15200   0.50060   0.56360
Si         Si      0.65140   0.06300   0.49940
Si         Si      0.41160   0.34860   0.84800
Si         Si      0.93700   0.58840   0.43640
Si         Si      0.65140   0.15200   0.58840
Si         Si      0.41160   0.56360   0.06300
Si         Si      0.93700   0.50060   0.34860
Si         Si      0.43640   0.58840   0.93700
Si         Si      0.49940   0.06300   0.65140
Si         Si      0.84800   0.34860   0.41160
Si         Si      0.43640   0.49940   0.84800
Si         Si      0.49940   0.84800   0.43640
Si         Si      0.84800   0.43640   0.49940
Si         Si      0.34860   0.50060   0.93700
Si         Si      0.58840   0.15200   0.65140
Si         Si      0.06300   0.56360   0.41160
Si         Si      0.34860   0.41160   0.84800
Si         Si      0.58840   0.93700   0.43640
Si         Si      0.06300   0.65140   0.49940
Si         Si      0.43640   0.93700   0.58840
Si         Si      0.49940   0.65140   0.06300
Si         Si      0.84800   0.41160   0.34860
Si         Si      0.43640   0.84800   0.49940
Si         Si      0.49940   0.43640   0.84800
Si         Si      0.84800   0.49940   0.43640
Si         Si      0.34860   0.93700   0.50060
Si         Si      0.58840   0.65140   0.15200
Si         Si      0.06300   0.41160   0.56360
Si         Si      0.34860   0.84800   0.41160
Si         Si      0.58840   0.43640   0.93700
Si         Si      0.06300   0.49940   0.65140
Si         Si      0.57960   0.35720   0.13380
Si         Si      0.44580   0.86620   0.22340
Si         Si      0.22240   0.77660   0.64280
Si         Si      0.57960   0.44580   0.22240
Si         Si      0.44580   0.22240   0.57960
Si         Si      0.22240   0.57960   0.44580
Si         Si      0.77660   0.55420   0.13380
Si         Si      0.35720   0.77760   0.22340
Si         Si      0.86620   0.42040   0.64280
Si         Si      0.77660   0.64280   0.22240
Si         Si      0.35720   0.13380   0.57960
Si         Si      0.86620   0.22340   0.44580
Si         Si      0.57960   0.13380   0.35720
Si         Si      0.44580   0.22340   0.86620
Si         Si      0.22240   0.64280   0.77660
Si         Si      0.57960   0.22240   0.44580
Si         Si      0.44580   0.57960   0.22240
Si         Si      0.22240   0.44580   0.57960
Si         Si      0.77660   0.13380   0.55420
Si         Si      0.35720   0.22340   0.77760
Si         Si      0.86620   0.64280   0.42040
Si         Si      0.77660   0.22240   0.64280
Si         Si      0.35720   0.57960   0.13380
Si         Si      0.86620   0.44580   0.22340
Si         Si      0.42040   0.64280   0.86620
Si         Si      0.55420   0.13380   0.77660
Si         Si      0.77760   0.22340   0.35720
Si         Si      0.42040   0.55420   0.77760
Si         Si      0.55420   0.77760   0.42040
Si         Si      0.77760   0.42040   0.55420
Si         Si      0.22340   0.44580   0.86620
Si         Si      0.64280   0.22240   0.77660
Si         Si      0.13380   0.57960   0.35720
Si         Si      0.22340   0.35720   0.77760
Si         Si      0.64280   0.86620   0.42040
Si         Si      0.13380   0.77660   0.55420
Si         Si      0.42040   0.86620   0.64280
Si         Si      0.55420   0.77660   0.13380
Si         Si      0.77760   0.35720   0.22340
Si         Si      0.42040   0.77760   0.55420
Si         Si      0.55420   0.42040   0.77760
Si         Si      0.77760   0.55420   0.42040
Si         Si      0.22340   0.86620   0.44580
Si         Si      0.64280   0.77660   0.22240
Si         Si      0.13380   0.35720   0.57960
Si         Si      0.22340   0.77760   0.35720
Si         Si      0.64280   0.42040   0.86620
Si         Si      0.13380   0.55420   0.77660
Si         Si      0.49110   0.26840   0.13430
Si         Si      0.35680   0.86570   0.13410
Si         Si      0.22270   0.86590   0.73160
Si         Si      0.49110   0.35680   0.22270
Si         Si      0.35680   0.22270   0.49110
Si         Si      0.22270   0.49110   0.35680
Si         Si      0.86590   0.64320   0.13430
Si         Si      0.26840   0.77730   0.13410
Si         Si      0.86570   0.50890   0.73160
Si         Si      0.86590   0.73160   0.22270
Si         Si      0.26840   0.13430   0.49110
Si         Si      0.86570   0.13410   0.35680
Si         Si      0.49110   0.13430   0.26840
Si         Si      0.35680   0.13410   0.86570
Si         Si      0.22270   0.73160   0.86590
Si         Si      0.49110   0.22270   0.35680
Si         Si      0.35680   0.49110   0.22270
Si         Si      0.22270   0.35680   0.49110
Si         Si      0.86590   0.13430   0.64320
Si         Si      0.26840   0.13410   0.77730
Si         Si      0.86570   0.73160   0.50890
Si         Si      0.86590   0.22270   0.73160
Si         Si      0.26840   0.49110   0.13430
Si         Si      0.86570   0.35680   0.13410
Si         Si      0.50890   0.73160   0.86570
Si         Si      0.64320   0.13430   0.86590
Si         Si      0.77730   0.13410   0.26840
Si         Si      0.50890   0.64320   0.77730
Si         Si      0.64320   0.77730   0.50890
Si         Si      0.77730   0.50890   0.64320
Si         Si      0.13410   0.35680   0.86570
Si         Si      0.73160   0.22270   0.86590
Si         Si      0.13430   0.49110   0.26840
Si         Si      0.13410   0.26840   0.77730
Si         Si      0.73160   0.86570   0.50890
Si         Si      0.13430   0.86590   0.64320
Si         Si      0.50890   0.86570   0.73160
Si         Si      0.64320   0.86590   0.13430
Si         Si      0.77730   0.26840   0.13410
Si         Si      0.50890   0.77730   0.64320
Si         Si      0.64320   0.50890   0.77730
Si         Si      0.77730   0.64320   0.50890
Si         Si      0.13410   0.86570   0.35680
Si         Si      0.73160   0.86590   0.22270
Si         Si      0.13430   0.26840   0.49110
Si         Si      0.13410   0.77730   0.26840
Si         Si      0.73160   0.50890   0.86570
Si         Si      0.13430   0.64320   0.86590
Si         Si      0.36570   0.21410   0.06280
Si         Si      0.30290   0.93720   0.15130
Si         Si      0.15160   0.84870   0.78590
Si         Si      0.36570   0.30290   0.15160
Si         Si      0.30290   0.15160   0.36570
Si         Si      0.15160   0.36570   0.30290
Si         Si      0.84870   0.69710   0.06280
Si         Si      0.21410   0.84840   0.15130
Si         Si      0.93720   0.63430   0.78590
Si         Si      0.84870   0.78590   0.15160
Si         Si      0.21410   0.06280   0.36570
Si         Si      0.93720   0.15130   0.30290
Si         Si      0.36570   0.06280   0.21410
Si         Si      0.30290   0.15130   0.93720
Si         Si      0.15160   0.78590   0.84870
Si         Si      0.36570   0.15160   0.30290
Si         Si      0.30290   0.36570   0.15160
Si         Si      0.15160   0.30290   0.36570
Si         Si      0.84870   0.06280   0.69710
Si         Si      0.21410   0.15130   0.84840
Si         Si      0.93720   0.78590   0.63430
Si         Si      0.84870   0.15160   0.78590
Si         Si      0.21410   0.36570   0.06280
Si         Si      0.93720   0.30290   0.15130
Si         Si      0.63430   0.78590   0.93720
Si         Si      0.69710   0.06280   0.84870
Si         Si      0.84840   0.15130   0.21410
Si         Si      0.63430   0.69710   0.84840
Si         Si      0.69710   0.84840   0.63430
Si         Si      0.84840   0.63430   0.69710
Si         Si      0.15130   0.30290   0.93720
Si         Si      0.78590   0.15160   0.84870
Si         Si      0.06280   0.36570   0.21410
Si         Si      0.15130   0.21410   0.84840
Si         Si      0.78590   0.93720   0.63430
Si         Si      0.06280   0.84870   0.69710
Si         Si      0.63430   0.93720   0.78590
Si         Si      0.69710   0.84870   0.06280
Si         Si      0.84840   0.21410   0.15130
Si         Si      0.63430   0.84840   0.69710
Si         Si      0.69710   0.63430   0.84840
Si         Si      0.84840   0.69710   0.63430
Si         Si      0.15130   0.93720   0.30290
Si         Si      0.78590   0.84870   0.15160
Si         Si      0.06280   0.21410   0.36570
Si         Si      0.15130   0.84840   0.21410
Si         Si      0.78590   0.63430   0.93720
Si         Si      0.06280   0.69710   0.84870
Si         Si      0.27730   0.12560   0.06290
Si         Si      0.21440   0.93710   0.06270
Si         Si      0.15170   0.93730   0.87440
Si         Si      0.27730   0.21440   0.15170
Si         Si      0.21440   0.15170   0.27730
Si         Si      0.15170   0.27730   0.21440
Si         Si      0.93730   0.78560   0.06290
Si         Si      0.12560   0.84830   0.06270
Si         Si      0.93710   0.72270   0.87440
Si         Si      0.93730   0.87440   0.15170
Si         Si      0.12560   0.06290   0.27730
Si         Si      0.93710   0.06270   0.21440
Si         Si      0.27730   0.06290   0.12560
Si         Si      0.21440   0.06270   0.93710
Si         Si      0.15170   0.87440   0.93730
Si         Si      0.27730   0.15170   0.21440
Si         Si      0.21440   0.27730   0.15170
Si         Si      0.15170   0.21440   0.27730
Si         Si      0.93730   0.06290   0.78560
Si         Si      0.12560   0.06270   0.84830
Si         Si      0.93710   0.87440   0.72270
Si         Si      0.93730   0.15170   0.87440
Si         Si      0.12560   0.27730   0.06290
Si         Si      0.93710   0.21440   0.06270
Si         Si      0.72270   0.87440   0.93710
Si         Si      0.78560   0.06290   0.93730
Si         Si      0.84830   0.06270   0.12560
Si         Si      0.72270   0.78560   0.84830
Si         Si      0.78560   0.84830   0.72270
Si         Si      0.84830   0.72270   0.78560
Si         Si      0.06270   0.21440   0.93710
Si         Si      0.87440   0.15170   0.93730
Si         Si      0.06290   0.27730   0.12560
Si         Si      0.06270   0.12560   0.84830
Si         Si      0.87440   0.93710   0.72270
Si         Si      0.06290   0.93730   0.78560
Si         Si      0.72270   0.93710   0.87440
Si         Si      0.78560   0.93730   0.06290
Si         Si      0.84830   0.12560   0.06270
Si         Si      0.72270   0.84830   0.78560
Si         Si      0.78560   0.72270   0.84830
Si         Si      0.84830   0.78560   0.72270
Si         Si      0.06270   0.93710   0.21440
Si         Si      0.87440   0.93730   0.15170
Si         Si      0.06290   0.12560   0.27730
Si         Si      0.06270   0.84830   0.12560
Si         Si      0.87440   0.72270   0.93710
Si         Si      0.06290   0.78560   0.93730
Si         Si      0.56290   0.12580   0.06290
Si         Si      0.50000   0.93710   0.06290
Si         Si      0.43710   0.93710   0.87420
Si         Si      0.56290   0.50000   0.43710
Si         Si      0.50000   0.43710   0.56290
Si         Si      0.43710   0.56290   0.50000
Si         Si      0.93710   0.50000   0.06290
Si         Si      0.12580   0.56290   0.06290
Si         Si      0.93710   0.43710   0.87420
Si         Si      0.93710   0.87420   0.43710
Si         Si      0.12580   0.06290   0.56290
Si         Si      0.93710   0.06290   0.50000
Si         Si      0.56290   0.06290   0.12580
Si         Si      0.50000   0.06290   0.93710
Si         Si      0.43710   0.87420   0.93710
Si         Si      0.56290   0.43710   0.50000
Si         Si      0.50000   0.56290   0.43710
Si         Si      0.43710   0.50000   0.56290
Si         Si      0.06290   0.50000   0.93710
Si         Si      0.87420   0.43710   0.93710
Si         Si      0.06290   0.56290   0.12580
Si         Si      0.06290   0.12580   0.56290
Si         Si      0.87420   0.93710   0.43710
Si         Si      0.06290   0.93710   0.50000
Si         Si      0.65160   0.30320   0.15160
Si         Si      0.50000   0.84840   0.15160
Si         Si      0.34840   0.84840   0.69680
Si         Si      0.65160   0.50000   0.34840
Si         Si      0.50000   0.34840   0.65160
Si         Si      0.34840   0.65160   0.50000
Si         Si      0.84840   0.50000   0.15160
Si         Si      0.30320   0.65160   0.15160
Si         Si      0.84840   0.34840   0.69680
Si         Si      0.84840   0.69680   0.34840
Si         Si      0.30320   0.15160   0.65160
Si         Si      0.84840   0.15160   0.50000
Si         Si      0.65160   0.15160   0.30320
Si         Si      0.50000   0.15160   0.84840
Si         Si      0.34840   0.69680   0.84840
Si         Si      0.65160   0.34840   0.50000
Si         Si      0.50000   0.65160   0.34840
Si         Si      0.34840   0.50000   0.65160
Si         Si      0.15160   0.50000   0.84840
Si         Si      0.69680   0.34840   0.84840
Si         Si      0.15160   0.65160   0.30320
Si         Si      0.15160   0.30320   0.65160
Si         Si      0.69680   0.84840   0.34840
Si         Si      0.15160   0.84840   0.50000
