data_crystal

_cell_length_a    13.07205
_cell_length_b    13.07205
_cell_length_c    30.26179
_cell_angle_alpha 90.00000
_cell_angle_beta  90.00000
_cell_angle_gamma 120.00000

_space_group_name_Hall 'P 1'
_space_group_name_H-M_alt 'P 1'

loop_
_symmetry_equiv_pos_as_xyz
 'x,y,z'

loop_
_atom_site_label
_atom_site_type_symbol
_atom_site_fract_x
_atom_site_fract_y
_atom_site_fract_z
Si         Si      0.90438   0.33034   0.87494
Si         Si      0.42596   0.09562   0.87494
Si         Si      0.66966   0.57404   0.87494
Si         Si      0.42596   0.33034   0.87494
Si         Si      0.90438   0.57404   0.87494
Si         Si      0.66966   0.09562   0.87494
Si         Si      0.09562   0.66966   0.37494
Si         Si      0.57404   0.90438   0.37494
Si         Si      0.33034   0.42596   0.37494
Si         Si      0.57404   0.66966   0.37494
Si         Si      0.09562   0.42596   0.37494
Si         Si      0.33034   0.90438   0.37494
Si         Si      0.09562   0.66966   0.12506
Si         Si      0.57404   0.90438   0.12506
Si         Si      0.33034   0.42596   0.12506
Si         Si      0.57404   0.66966   0.12506
Si         Si      0.09562   0.42596   0.12506
Si         Si      0.33034   0.90438   0.12506
Si         Si      0.90438   0.33034   0.62506
Si         Si      0.42596   0.09562   0.62506
Si         Si      0.66966   0.57404   0.62506
Si         Si      0.42596   0.33034   0.62506
Si         Si      0.90438   0.57404   0.62506
Si         Si      0.66966   0.09562   0.62506
Si         Si      0.00013   0.23448   0.80088
Si         Si      0.23435   0.99987   0.80088
Si         Si      0.76552   0.76565   0.80088
Si         Si      0.23435   0.23448   0.80088
Si         Si      0.00013   0.76565   0.80088
Si         Si      0.76552   0.99987   0.80088
Si         Si      0.99987   0.76552   0.30088
Si         Si      0.76565   0.00013   0.30088
Si         Si      0.23448   0.23435   0.30088
Si         Si      0.76565   0.76552   0.30088
Si         Si      0.99987   0.23435   0.30088
Si         Si      0.23448   0.00013   0.30088
Si         Si      0.99987   0.76552   0.19912
Si         Si      0.76565   0.00013   0.19912
Si         Si      0.23448   0.23435   0.19912
Si         Si      0.76565   0.76552   0.19912
Si         Si      0.99987   0.23435   0.19912
Si         Si      0.23448   0.00013   0.19912
Si         Si      0.00013   0.23448   0.69912
Si         Si      0.23435   0.99987   0.69912
Si         Si      0.76552   0.76565   0.69912
Si         Si      0.23435   0.23448   0.69912
Si         Si      0.00013   0.76565   0.69912
Si         Si      0.76552   0.99987   0.69912
Si         Si      0.99952   0.23427   0.94908
Si         Si      0.23475   0.00048   0.94908
Si         Si      0.76573   0.76525   0.94908
Si         Si      0.23475   0.23427   0.94908
Si         Si      0.99952   0.76525   0.94908
Si         Si      0.76573   0.00048   0.94908
Si         Si      0.00048   0.76573   0.44908
Si         Si      0.76525   0.99952   0.44908
Si         Si      0.23427   0.23475   0.44908
Si         Si      0.76525   0.76573   0.44908
Si         Si      0.00048   0.23475   0.44908
Si         Si      0.23427   0.99952   0.44908
Si         Si      0.00048   0.76573   0.05092
Si         Si      0.76525   0.99952   0.05092
Si         Si      0.23427   0.23475   0.05092
Si         Si      0.76525   0.76573   0.05092
Si         Si      0.00048   0.23475   0.05092
Si         Si      0.23427   0.99952   0.05092
Si         Si      0.99952   0.23427   0.55092
Si         Si      0.23475   0.00048   0.55092
Si         Si      0.76573   0.76525   0.55092
Si         Si      0.23475   0.23427   0.55092
Si         Si      0.99952   0.76525   0.55092
Si         Si      0.76573   0.00048   0.55092
O          O       0.76546   0.23454   0.87515
O          O       0.46908   0.23454   0.87515
O          O       0.76546   0.53092   0.87515
O          O       0.23454   0.76546   0.37515
O          O       0.53092   0.76546   0.37515
O          O       0.23454   0.46908   0.37515
O          O       0.23454   0.76546   0.12485
O          O       0.53092   0.76546   0.12485
O          O       0.23454   0.46908   0.12485
O          O       0.76546   0.23454   0.62485
O          O       0.46908   0.23454   0.62485
O          O       0.76546   0.53092   0.62485
O          O       0.96491   0.31290   0.83144
O          O       0.34799   0.03509   0.83144
O          O       0.68710   0.65201   0.83144
O          O       0.34799   0.31290   0.83144
O          O       0.96491   0.65201   0.83144
O          O       0.68710   0.03509   0.83144
O          O       0.03509   0.68710   0.33144
O          O       0.65201   0.96491   0.33144
O          O       0.31290   0.34799   0.33144
O          O       0.65201   0.68710   0.33144
O          O       0.03509   0.34799   0.33144
O          O       0.31290   0.96491   0.33144
O          O       0.03509   0.68710   0.16856
O          O       0.65201   0.96491   0.16856
O          O       0.31290   0.34799   0.16856
O          O       0.65201   0.68710   0.16856
O          O       0.03509   0.34799   0.16856
O          O       0.31290   0.96491   0.16856
O          O       0.96491   0.31290   0.66856
O          O       0.34799   0.03509   0.66856
O          O       0.68710   0.65201   0.66856
O          O       0.34799   0.31290   0.66856
O          O       0.96491   0.65201   0.66856
O          O       0.68710   0.03509   0.66856
O          O       0.92340   0.46170   0.87488
O          O       0.53830   0.07660   0.87488
O          O       0.53830   0.46170   0.87488
O          O       0.07660   0.53830   0.37488
O          O       0.46170   0.92340   0.37488
O          O       0.46170   0.53830   0.37488
O          O       0.07660   0.53830   0.12512
O          O       0.46170   0.92340   0.12512
O          O       0.46170   0.53830   0.12512
O          O       0.92340   0.46170   0.62512
O          O       0.53830   0.07660   0.62512
O          O       0.53830   0.46170   0.62512
O          O       0.96587   0.31348   0.91827
O          O       0.34761   0.03413   0.91827
O          O       0.68652   0.65239   0.91827
O          O       0.34761   0.31348   0.91827
O          O       0.96587   0.65239   0.91827
O          O       0.68652   0.03413   0.91827
O          O       0.03413   0.68652   0.41827
O          O       0.65239   0.96587   0.41827
O          O       0.31348   0.34761   0.41827
O          O       0.65239   0.68652   0.41827
O          O       0.03413   0.34761   0.41827
O          O       0.31348   0.96587   0.41827
O          O       0.03413   0.68652   0.08173
O          O       0.65239   0.96587   0.08173
O          O       0.31348   0.34761   0.08173
O          O       0.65239   0.68652   0.08173
O          O       0.03413   0.34761   0.08173
O          O       0.31348   0.96587   0.08173
O          O       0.96587   0.31348   0.58173
O          O       0.34761   0.03413   0.58173
O          O       0.68652   0.65239   0.58173
O          O       0.34761   0.31348   0.58173
O          O       0.96587   0.65239   0.58173
O          O       0.68652   0.03413   0.58173
O          O       0.90312   0.09688   0.80656
O          O       0.19376   0.09688   0.80656
O          O       0.90312   0.80624   0.80656
O          O       0.09688   0.90312   0.30656
O          O       0.80624   0.90312   0.30656
O          O       0.09688   0.19376   0.30656
O          O       0.09688   0.90312   0.19344
O          O       0.80624   0.90312   0.19344
O          O       0.09688   0.19376   0.19344
O          O       0.90312   0.09688   0.69344
O          O       0.19376   0.09688   0.69344
O          O       0.90312   0.80624   0.69344
O          O       0.00461   0.27247   0.75000
O          O       0.26786   0.99539   0.75000
O          O       0.72753   0.73214   0.75000
O          O       0.26786   0.27247   0.75000
O          O       0.00461   0.73214   0.75000
O          O       0.72753   0.99539   0.75000
O          O       0.99539   0.72753   0.25000
O          O       0.73214   0.00461   0.25000
O          O       0.27247   0.26786   0.25000
O          O       0.73214   0.72753   0.25000
O          O       0.99539   0.26786   0.25000
O          O       0.27247   0.00461   0.25000
O          O       0.12784   0.25568   0.81535
O          O       0.12784   0.87216   0.81535
O          O       0.74432   0.87216   0.81535
O          O       0.87216   0.74432   0.31535
O          O       0.87216   0.12784   0.31535
O          O       0.25568   0.12784   0.31535
O          O       0.87216   0.74432   0.18465
O          O       0.87216   0.12784   0.18465
O          O       0.25568   0.12784   0.18465
O          O       0.12784   0.25568   0.68465
O          O       0.12784   0.87216   0.68465
O          O       0.74432   0.87216   0.68465
O          O       0.90321   0.09679   0.94240
O          O       0.19358   0.09679   0.94240
O          O       0.90321   0.80642   0.94240
O          O       0.09679   0.90321   0.44240
O          O       0.80642   0.90321   0.44240
O          O       0.09679   0.19358   0.44240
O          O       0.09679   0.90321   0.05760
O          O       0.80642   0.90321   0.05760
O          O       0.09679   0.19358   0.05760
O          O       0.90321   0.09679   0.55760
O          O       0.19358   0.09679   0.55760
O          O       0.90321   0.80642   0.55760
O          O       0.00000   0.27011   1.00000
O          O       0.27011   0.00000   0.00000
O          O       0.72989   0.72989   0.00000
O          O       0.27011   0.27011   0.00000
O          O       0.00000   0.72989   1.00000
O          O       0.72989   0.00000   0.00000
O          O       0.00000   0.72989   0.50000
O          O       0.72989   0.00000   0.50000
O          O       0.27011   0.27011   0.50000
O          O       0.72989   0.72989   0.50000
O          O       0.00000   0.27011   0.50000
O          O       0.27011   0.00000   0.50000
O          O       0.12836   0.25672   0.93574
O          O       0.12836   0.87164   0.93574
O          O       0.74328   0.87164   0.93574
O          O       0.87164   0.74328   0.43574
O          O       0.87164   0.12836   0.43574
O          O       0.25672   0.12836   0.43574
O          O       0.87164   0.74328   0.06426
O          O       0.87164   0.12836   0.06426
O          O       0.25672   0.12836   0.06426
O          O       0.12836   0.25672   0.56426
O          O       0.12836   0.87164   0.56426
O          O       0.74328   0.87164   0.56426
